geometry optimzed in LAMMPS
_audit_creation_date              2020-12-01 
_audit_creation_method            'lammps2cif' 
_symmetry_space_group_name_H-M    'P1' 
_symmetry_Int_Tables_number       1 
_symmetry_cell_setting            triclinic 
loop_ 
_symmetry_equiv_pos_as_xyz 
  x,y,z 
_cell_length_a                    35.80155851 
_cell_length_b                    35.951487650771696 
_cell_length_c                    49.57280607748615 
_cell_angle_alpha                 90.36254207114513 
_cell_angle_beta                  89.58240957960497 
_cell_angle_gamma                 120.4750282901144 
loop_ 
_atom_site_label 
_atom_site_type_symbol 
_atom_site_fract_x 
_atom_site_fract_y 
_atom_site_fract_z 
_atom_site_charge 
O1          O  0.43291757  0.58597163  0.53203636    -0.82300
C2          C  0.50730391  0.63338625  0.63497098     0.97100
O3          O  0.47533377  0.63600316  0.62687216    -0.71400
O4          O  0.47902659  0.68233362  0.58513166    -0.75000
Al5        Al  0.44393822  0.62257333  0.59403145     1.49000
C6          C  0.48233644  0.69499803  0.56115586     0.92300
O7          O  0.55251405  0.66069575  0.55587781    -0.81200
O8          O  0.47147839  0.53196977  0.56481738    -0.74800
Al9        Al  0.49267487  0.62348469  0.54308113     1.90100
O10         O  0.55063921  0.60481842  0.57488635    -0.73800
O11         O  0.44518468  0.53940576  0.61289792    -0.73700
O12         O  0.52172965  0.61323316  0.62183415    -0.79300
O13         O  0.40384661  0.56646352  0.60538866    -0.77600
O14         O  0.47702581  0.60678755  0.57694046    -1.13700
O15         O  0.40659524  0.61038520  0.56372188    -0.72900
C16         C  0.40091431  0.58566492  0.54385226     0.97800
C17         C  0.57071790  0.64503181  0.57041014     0.94200
Al18       Al  0.49574402  0.57475750  0.59242389     1.55600
O19         O  0.48466979  0.67231154  0.54260625    -0.77500
C20         C  0.40925655  0.53740973  0.61518155     0.98400
C21         C  0.48454125  0.53987126  0.54069604     0.93300
O22         O  0.50338498  0.57828768  0.53235256    -0.82800
O23         O  0.88360907  0.81123207  0.64806251    -0.82300
C24         C  0.78786097  0.78179945  0.55307923     0.97100
O25         O  0.81034930  0.81785793  0.56458755    -0.71400
O26         O  0.82842203  0.86467883  0.60801004    -0.75000
Al27       Al  0.85532275  0.83645923  0.59004806     1.49000
C28         C  0.83235287  0.87288134  0.63273660     0.92300
O29         O  0.76069879  0.76655973  0.63544312    -0.81200
O30         O  0.83337989  0.71414649  0.61959084    -0.74800
Al31       Al  0.82178708  0.78880773  0.64306983     1.90100
O32         O  0.75625989  0.71397290  0.60868148    -0.73800
O33         O  0.86396403  0.75250885  0.57349693    -0.73700
O34         O  0.78773261  0.74852285  0.56125688    -0.79300
O35         O  0.88715923  0.82090511  0.56717095    -0.77600
O36         O  0.82992824  0.78734193  0.60798049    -1.13700
O37         O  0.90403567  0.85910570  0.61420440    -0.72900
C38         C  0.91319335  0.84180852  0.63362468     0.97800
C39         C  0.73877726  0.73300455  0.62048923     0.94200
Al40       Al  0.81178525  0.73642990  0.59220453     1.55600
O41         O  0.83277706  0.84581928  0.64808713    -0.77500
C42         C  0.88962551  0.78784695  0.56241781     0.98400
C43         C  0.82181452  0.70900382  0.64393954     0.93300
O44         O  0.80841795  0.73239903  0.65348869    -0.82800
O45         O  0.83945470  0.55840658  0.70552057    -0.82300
C46         C  0.83080425  0.48757588  0.80558686     0.97100
O47         O  0.84334244  0.52488321  0.79663365    -0.71400
O48         O  0.88250592  0.56747539  0.75275752    -0.75000
Al49       Al  0.82518164  0.54375311  0.76582598     1.49000
C50         C  0.90233823  0.55148046  0.74036297     0.92300
O51         O  0.81251945  0.44278985  0.70541572    -0.81200
O52         O  0.73562540  0.42568996  0.73004556    -0.74800
Al53       Al  0.82349473  0.50016428  0.71227457     1.90100
O54         O  0.80782916  0.41974980  0.74602333    -0.73800
O55         O  0.73545568  0.45659682  0.77784047    -0.73700
O56         O  0.80595066  0.45427023  0.79216035    -0.79300
O57         O  0.77165007  0.52674949  0.78239565    -0.77600
O58         O  0.80750466  0.49568995  0.74673987    -1.13700
O59         O  0.80873134  0.57152470  0.73876113    -0.72900
C60         C  0.82357217  0.57971101  0.71504137     0.97800
C61         C  0.81098104  0.41497283  0.72115516     0.94200
Al62       Al  0.77420322  0.44346948  0.76026085     1.55600
O63         O  0.88266714  0.51960753  0.72391674    -0.77500
C64         C  0.73860519  0.49066926  0.78713142     0.98400
C65         C  0.73135979  0.44859476  0.71222564     0.93300
O66         O  0.76425475  0.48184835  0.70211791    -0.82800
O67         O  0.16471632  0.71867701  0.81865816    -0.82300
C68         C  0.15454201  0.65387171  0.71339789     0.97100
O69         O  0.14867774  0.68523327  0.71928493    -0.71400
O70         O  0.09860471  0.67189463  0.75977836    -0.75000
Al71       Al  0.15354158  0.71532060  0.75358173     1.49000
C72         C  0.07883619  0.64369286  0.77729349     0.92300
O73         O  0.15528645  0.61364578  0.79701486    -0.81200
O74         O  0.25880225  0.72176006  0.77573422    -0.74800
Al75       Al  0.16212253  0.66879309  0.80419528     1.90100
O76         O  0.21404801  0.63592576  0.77372583    -0.73800
O77         O  0.23400138  0.72757499  0.72751276    -0.73700
O78         O  0.17498789  0.64266227  0.72903980    -0.79300
O79         O  0.20728553  0.76488541  0.74455802    -0.77600
O80         O  0.17696789  0.68879031  0.77064693    -1.13700
O81         O  0.15269027  0.74811380  0.78412001    -0.72900
C82         C  0.15889026  0.74754734  0.80912038     0.97800
C83         C  0.18536023  0.60832211  0.78892564     0.94200
Al84       Al  0.21684864  0.68238124  0.75317997     1.55600
O85         O  0.09898405  0.63975563  0.79718701    -0.77500
C86         C  0.23127051  0.76104756  0.72771278     0.98400
C87         C  0.25952250  0.72032764  0.80112769     0.93300
O88         O  0.22480657  0.69618332  0.81490544    -0.82800
O89         O  0.10350929  0.90281161  0.86113761    -0.82300
C90         C  0.14669538  0.97554626  0.96529386     0.97100
O91         O  0.11441759  0.96852138  0.95138166    -0.71400
O92         O  0.11802904  0.00255912  0.90459959    -0.75000
Al93       Al  0.09228240  0.94488721  0.91723419     1.49000
C94         C  0.12604364  0.01222509  0.88011916     0.92300
O95         O  0.21199155  0.99968430  0.88725295    -0.81200
O96         O  0.15172318  0.87320354  0.90669191    -0.74800
Al97       Al  0.15720426  0.95173760  0.87415480     1.90100
O98         O  0.21894423  0.95874861  0.91779847    -0.73800
O99         O  0.11030874  0.88071342  0.94935620    -0.73700
O100        O  0.17245256  0.96337211  0.95732090    -0.79300
O101        O  0.05939093  0.88910681  0.93186823    -0.77600
O102        O  0.13696926  0.93931852  0.90785830    -1.13700
O103        O  0.06180721  0.92037533  0.88441406    -0.72900
C104        C  0.06608488  0.89551404  0.86807227     0.97800
C105        C  0.23450917  0.99400758  0.90496152     0.94200
Al106      Al  0.16150422  0.92031143  0.93076894     1.55600
O107        O  0.13732466  0.99116662  0.86520062    -0.77500
C108        C  0.07117968  0.87045863  0.94817401     0.98400
C109        C  0.16595658  0.87893486  0.88271624     0.93300
O110        O  0.18195403  0.91591506  0.87262029    -0.82800
O111        O  0.54737946  0.14265981  0.98192582    -0.82300
C112        C  0.46724210  0.12592338  0.88294147     0.97100
O113        O  0.48939930  0.16118210  0.89537014    -0.71400
O114        O  0.50124647  0.20269729  0.94032516    -0.75000
Al115      Al  0.53009139  0.17595175  0.92339146     1.49000
C116        C  0.50227477  0.20914479  0.96518446     0.92300
O117        O  0.42814558  0.10408089  0.96284519    -0.81200
O118        O  0.50221653  0.05117507  0.94992068    -0.74800
Al119      Al  0.48761624  0.12336395  0.97393575     1.90100
O120        O  0.42582664  0.05279914  0.93610378    -0.73800
O121        O  0.53764715  0.09237083  0.90557374    -0.73700
O122        O  0.46449641  0.09142719  0.89095994    -0.79300
O123        O  0.56474386  0.16194776  0.90182575    -0.77600
O124        O  0.50090268  0.12522019  0.93930520    -1.13700
O125        O  0.57467834  0.19454053  0.95031863    -0.72900
C126        C  0.57955641  0.17356561  0.96940667     0.97800
C127        C  0.40808256  0.07334987  0.94556201     0.94200
Al128      Al  0.48375598  0.07574287  0.92216635     1.55600
O129        O  0.50019259  0.18084211  0.98053635    -0.77500
C130        C  0.56594722  0.12842758  0.89641897     0.98400
C131        C  0.49000268  0.04577375  0.97411368     0.93300
O132        O  0.47215992  0.06567512  0.98292253    -0.82800
O133        O  0.16558121  0.21593007  0.36563779    -0.82300
C134        C  0.17888058  0.15785152  0.46652657     0.97100
O135        O  0.17750369  0.19101136  0.45988200    -0.71400
O136        O  0.21695211  0.22992345  0.41419872    -0.75000
Al137      Al  0.15908617  0.20699150  0.42752638     1.49000
C138        C  0.23474339  0.21276363  0.40044397     0.92300
O139        O  0.14406436  0.10336907  0.36710791    -0.81200
O140        O  0.07204979  0.08533889  0.40066563    -0.74800
Al141      Al  0.15303227  0.15978434  0.37455324     1.90100
O142        O  0.15045949  0.08482976  0.40694401    -0.73800
O143        O  0.08509455  0.12028794  0.44875059    -0.73700
O144        O  0.16248734  0.12481497  0.45180823    -0.79300
O145        O  0.10366228  0.18785282  0.44300712    -0.77600
O146        O  0.14359158  0.15829269  0.40963461    -1.13700
O147        O  0.14203061  0.23410483  0.40010685    -0.72900
C148        C  0.15199849  0.23880212  0.37549063     0.97800
C149        C  0.14856254  0.07815740  0.38206008     0.94200
Al150      Al  0.11938039  0.10785902  0.42563280     1.55600
O151        O  0.21386473  0.18292938  0.38273367    -0.77500
C152        C  0.07941254  0.15151342  0.45364300     0.98400
C153        C  0.06216132  0.10422575  0.38273380     0.93300
O154        O  0.09120134  0.13665523  0.36924382    -0.82800
O155        O  0.49096776  0.38164152  0.48055467    -0.82300
C156        C  0.50585831  0.33857560  0.37414103     0.97100
O157        O  0.49473869  0.36581026  0.38063793    -0.71400
O158        O  0.43409140  0.33506693  0.41556210    -0.75000
Al159      Al  0.48705910  0.38509553  0.41551591     1.49000
C160        C  0.41372722  0.30549670  0.43225654     0.92300
O161        O  0.49290471  0.28325529  0.45516161    -0.81200
O162        O  0.59329724  0.40114646  0.44653080    -0.74800
Al163      Al  0.49321520  0.33493508  0.46496158     1.90100
O164        O  0.55654663  0.31529808  0.43609431    -0.73800
O165        O  0.57816588  0.41517851  0.39760052    -0.73700
O166        O  0.52788724  0.32931599  0.38969228    -0.79300
O167        O  0.53792317  0.44013144  0.41266481    -0.77600
O168        O  0.51279674  0.36121088  0.43320157    -1.13700
O169        O  0.47360152  0.40773327  0.44644338    -0.72900
C170        C  0.48027415  0.40731809  0.47132085     0.97800
C171        C  0.52677351  0.28324525  0.44833262     0.94200
Al172      Al  0.55994784  0.36482390  0.41878019     1.55600
O173        O  0.43176227  0.30444197  0.45409966    -0.77500
C174        C  0.56962102  0.44499216  0.39895584     0.98400
C175        C  0.58896172  0.38945198  0.47078583     0.93300
O176        O  0.55215577  0.36084871  0.48030992    -0.82800
O177        O  0.76231241  0.24328371  0.20008523    -0.82300
C178        C  0.83513481  0.29256602  0.30405823     0.97100
O179        O  0.79925112  0.28778132  0.29664914    -0.71400
O180        O  0.79196113  0.33106993  0.25653776    -0.75000
Al181      Al  0.76722582  0.27089316  0.26415361     1.49000
C182        C  0.79503783  0.34540939  0.23303578     0.92300
O183        O  0.87984677  0.32688520  0.22450596    -0.81200
O184        O  0.81333992  0.19700249  0.23310451    -0.74800
Al185      Al  0.82044153  0.28434366  0.21225310     1.90100
O186        O  0.88746737  0.27584398  0.24273016    -0.73800
O187        O  0.78704659  0.19949239  0.28271176    -0.73700
O188        O  0.85566254  0.27962996  0.28984516    -0.79300
O189        O  0.73513160  0.21257782  0.27507565    -0.77600
O190        O  0.80660863  0.26491480  0.24598273    -1.13700
O191        O  0.72861648  0.25364379  0.23453521    -0.72900
C192        C  0.72773037  0.23669490  0.21189847     0.97800
C193        C  0.90301336  0.31547224  0.23771324     0.94200
Al194      Al  0.83360412  0.23987076  0.26074784     1.55600
O195        O  0.80456672  0.32837699  0.21395256    -0.77500
C196        C  0.74844177  0.19016790  0.28613203     0.98400
C197        C  0.82258846  0.20489929  0.20837519     0.93300
O198        O  0.83692426  0.24305023  0.19995303    -0.82800
O199        O  0.21625529  0.46737133  0.31869986    -0.82300
C200        C  0.16114964  0.46096366  0.21117692     0.97100
O201        O  0.19354397  0.49116615  0.22279000    -0.71400
O202        O  0.19180674  0.53423965  0.26507774    -0.75000
Al203      Al  0.21853108  0.50108589  0.25712739     1.49000
C204        C  0.18802782  0.54382975  0.28899273     0.92300
O205        O  0.10274106  0.44230520  0.29296183    -0.81200
O206        O  0.16038776  0.37285174  0.28230504    -0.74800
Al207      Al  0.15984828  0.45528295  0.30573455     1.90100
O208        O  0.09347636  0.38768941  0.26714987    -0.73800
O209        O  0.20073156  0.41031344  0.23691969    -0.73700
O210        O  0.13684927  0.42578458  0.22310879    -0.79300
O211        O  0.25158625  0.47613423  0.24650122    -0.77600
O212        O  0.17613470  0.45316949  0.27190911    -1.13700
O213        O  0.25262351  0.51923499  0.28895298    -0.72900
C214        C  0.25197234  0.49741144  0.30904501     0.97800
C215        C  0.07880189  0.40990752  0.27781224     0.94200
Al216      Al  0.15001059  0.40318980  0.25411951     1.55600
O217        O  0.17889255  0.51627273  0.30726393    -0.77500
C218        C  0.23959438  0.44052794  0.23510945     0.98400
C219        C  0.14800723  0.36956333  0.30654749     0.93300
O220        O  0.13741156  0.39584977  0.31532771    -0.82800
O221        O  0.81855583  0.04559851  0.14712761    -0.82300
C222        C  0.82894031  0.97318120  0.04866665     0.97100
O223        O  0.81650676  0.00074679  0.05116058    -0.71400
O224        O  0.75941399  0.98577572  0.08913790    -0.75000
Al225      Al  0.81391946  0.03353370  0.08252988     1.49000
C226        C  0.74182114  0.95986551  0.10833452     0.92300
O227        O  0.82686640  0.94686681  0.13664354    -0.81200
O228        O  0.92213734  0.05765413  0.11268048    -0.74800
Al229      Al  0.82460111  0.99882657  0.13816427     1.90100
O230        O  0.88744885  0.97299395  0.11501844    -0.73800
O231        O  0.90094935  0.05275612  0.06274507    -0.73700
O232        O  0.84966286  0.96757404  0.06736154    -0.79300
O233        O  0.86571556  0.08553299  0.07249194    -0.77600
O234        O  0.84065224  0.01475631  0.10404831    -1.13700
O235        O  0.80681380  0.06905583  0.10960609    -0.72900
C236        C  0.81126214  0.07157387  0.13497561     0.97800
C237        C  0.86031817  0.94564955  0.13090252     0.94200
Al238      Al  0.88566083  0.01262843  0.09078216     1.55600
O239        O  0.76318652  0.96241282  0.12938758    -0.77500
C240        C  0.89657773  0.08501824  0.06068981     0.98400
C241        C  0.91931377  0.06183339  0.13775764     0.93300
O242        O  0.88520241  0.03559205  0.15116259    -0.82800
O243        O  0.48659671  0.88574129  0.04008763    -0.82300
C244        C  0.47219647  0.83400105  0.14803158     0.97100
O245        O  0.48943790  0.87307243  0.14023611    -0.71400
O246        O  0.54558698  0.89853597  0.10158316    -0.75000
Al247      Al  0.49424176  0.89882316  0.10487789     1.49000
C248        C  0.56084669  0.88212456  0.08590846     0.92300
O249        O  0.47031510  0.77968798  0.06693353    -0.81200
O250        O  0.38122233  0.81178140  0.07791195    -0.74800
Al251      Al  0.47755999  0.83475292  0.05674558     1.90100
O252        O  0.40979018  0.75720347  0.08810939    -0.73800
O253        O  0.40322610  0.84401707  0.12643936    -0.73700
O254        O  0.44653344  0.80266831  0.13310285    -0.79300
O255        O  0.44742519  0.90851385  0.11168720    -0.77600
O256        O  0.46272419  0.84733422  0.08871496    -1.13700
O257        O  0.50396902  0.93260825  0.07264623    -0.72900
C258        C  0.49674751  0.92298448  0.04788768     0.97800
C259        C  0.43432338  0.74877203  0.07451183     0.94200
Al260      Al  0.41470050  0.80754731  0.10486695     1.55600
O261        O  0.53861538  0.85902915  0.06612760    -0.77500
C262        C  0.41564862  0.88340470  0.12598027     0.98400
C263        C  0.38319256  0.80389475  0.05323769     0.93300
O264        O  0.41787207  0.80782932  0.04287983    -0.82800
O265        O  0.59023424  0.06779190  0.48195363    -0.82300
C266        C  0.66163015  0.11569528  0.38153338     0.97100
O267        O  0.62741323  0.08310529  0.39005236    -0.71400
O268        O  0.62073183  0.04685558  0.43763922    -0.75000
Al269      Al  0.59136473  0.07237947  0.42119138     1.49000
C270        C  0.65849505  0.06473320  0.44789844     0.92300
O271        O  0.68428843  0.17821230  0.47771447    -0.81200
O272        O  0.63034354  0.19614221  0.44380425    -0.74800
Al273      Al  0.63569157  0.12284332  0.47203583     1.90100
O274        O  0.70892360  0.19572047  0.43751956    -0.73800
O275        O  0.60722563  0.15881575  0.39615578    -0.73700
O276        O  0.67865722  0.15136876  0.39374415    -0.79300
O277        O  0.55836212  0.09120888  0.40290224    -0.77600
O278        O  0.62684542  0.12242764  0.43703009    -1.13700
O279        O  0.54699706  0.05245251  0.44847603    -0.72900
C280        C  0.55293073  0.04647980  0.47258475     0.97800
C281        C  0.71376188  0.20327949  0.46231311     0.94200
Al282      Al  0.65410170  0.17153711  0.41939693     1.55600
O283        O  0.67190818  0.09778711  0.46363944    -0.77500
C284        C  0.57043006  0.12650581  0.39141784     0.98400
C285        C  0.60228184  0.17931329  0.46280239     0.93300
O286        O  0.59879712  0.14801073  0.47730030    -0.82800
O287        O  0.75152961  0.89708767  0.37303170    -0.82300
C288        C  0.80773664  0.95173010  0.47920873     0.97100
O289        O  0.76847358  0.92605993  0.47277628    -0.71400
O290        O  0.74172540  0.95423096  0.43476152    -0.75000
Al291      Al  0.74133857  0.90301341  0.43808436     1.49000
C292        C  0.75002893  0.97898586  0.41522315     0.92300
O293        O  0.85042586  0.99809464  0.39671467    -0.81200
O294        O  0.83105690  0.88106081  0.41100059    -0.74800
Al295      Al  0.79988227  0.94531785  0.38746589     1.90100
O296        O  0.88202138  0.96842996  0.41753130    -0.73800
O297        O  0.80017212  0.87335396  0.45960062    -0.73700
O298        O  0.83865728  0.95966399  0.46325865    -0.79300
O299        O  0.73408437  0.84752555  0.44524133    -0.77600
O300        O  0.79148594  0.92307977  0.42055615    -1.13700
O301        O  0.70512739  0.87754413  0.40638444    -0.72900
C302        C  0.71341136  0.87516578  0.38169628     0.97800
C303        C  0.88440740  0.99933906  0.40420241     0.94200
Al304      Al  0.83439644  0.92084996  0.43643928     1.55600
O305        O  0.76820097  0.97555312  0.39403429    -0.77500
C306        C  0.76087934  0.84428349  0.45986618     0.98400
C307        C  0.83935595  0.88990514  0.38638217     0.93300
O308        O  0.83342417  0.91843626  0.37517948    -0.82800
O309        O  0.06873518  0.57128993  0.04209784    -0.82300
C310        C  0.15248585  0.63482935  0.13917097     0.97100
O311        O  0.11377358  0.61409113  0.13128521    -0.71400
O312        O  0.06790802  0.61177565  0.08986239    -0.75000
Al313      Al  0.08838463  0.57470035  0.10176501     1.49000
C314        C  0.08582956  0.64656492  0.07619743     0.92300
O315        O  0.18618056  0.65502806  0.03787090    -0.81200
O316        O  0.20155352  0.59654158  0.05921430    -0.74800
Al317      Al  0.12805100  0.61075577  0.04615435     1.90100
O318        O  0.21169742  0.67431950  0.07831403    -0.73800
O319        O  0.17146982  0.56229791  0.10642206    -0.73700
O320        O  0.18277930  0.63748868  0.12487389    -0.79300
O321        O  0.10317342  0.53585273  0.11738420    -0.77600
O322        O  0.13464788  0.60070351  0.08039417    -1.13700
O323        O  0.05431569  0.52903482  0.07618976    -0.72900
C324        C  0.04541291  0.53539503  0.05276455     0.97800
C325        C  0.21451473  0.68199224  0.05342804     0.94200
Al326      Al  0.18757317  0.61652194  0.09134491     1.55600
O327        O  0.11419381  0.65372591  0.05790647    -0.77500
C328        C  0.13738556  0.53398147  0.11800012     0.98400
C329        C  0.17495885  0.56670879  0.04380674     0.93300
O330        O  0.14090652  0.56610529  0.03554152    -0.82800
O331        O  0.91456439  0.73297459  0.14722680    -0.82300
C332        C  0.96955151  0.79592107  0.04227961     0.97100
O333        O  0.94342871  0.75664769  0.04817340    -0.71400
O334        O  0.96785616  0.72528808  0.08569280    -0.75000
Al335      Al  0.91816149  0.72790314  0.08199936     1.49000
C336        C  0.99612062  0.73591332  0.10347303     0.92300
O337        O  0.01442559  0.83740818  0.12645239    -0.81200
O338        O  0.89725040  0.81614157  0.11147238    -0.74800
Al339      Al  0.96212705  0.78395575  0.13361083     1.90100
O340        O  0.98389518  0.86723359  0.10473877    -0.73800
O341        O  0.89016048  0.78890233  0.06182524    -0.73700
O342        O  0.97645166  0.82645101  0.05820671    -0.79300
O343        O  0.86363444  0.72265272  0.07480752    -0.77600
O344        O  0.93949240  0.77730557  0.10051443    -1.13700
O345        O  0.88986502  0.69058680  0.11206367    -0.72900
C346        C  0.88867366  0.69685391  0.13704170     0.97800
C347        C  0.01491079  0.87075299  0.11844273     0.94200
Al348      Al  0.93716604  0.82082755  0.08557120     1.55600
O349        O  0.99530579  0.75566863  0.12464821    -0.77500
C350        C  0.86099997  0.74998914  0.06067979     0.98400
C351        C  0.90526337  0.82194504  0.13635048     0.93300
O352        O  0.93283046  0.81420626  0.14733499    -0.82800
O353        O  0.70990431  0.47273753  0.20840562    -0.82300
C354        C  0.64808836  0.50857672  0.30308054     0.97100
O355        O  0.63075122  0.47284346  0.29088801    -0.71400
O356        O  0.60188182  0.42357055  0.24881839    -0.75000
Al357      Al  0.65686075  0.45222012  0.26669927     1.49000
C358        C  0.59632221  0.41554683  0.22411756     0.92300
O359        O  0.63625507  0.52390525  0.22049286    -0.81200
O360        O  0.76110808  0.57231953  0.23519884    -0.74800
Al361      Al  0.67275006  0.49813783  0.21305566     1.90100
O362        O  0.68523223  0.57479111  0.24791582    -0.73800
O363        O  0.75348084  0.53405696  0.28000975    -0.73700
O364        O  0.68337552  0.54035293  0.29503843    -0.79300
O365        O  0.70393525  0.46797523  0.29000275    -0.77600
O366        O  0.68252179  0.50046384  0.24794509    -1.13700
O367        O  0.68247105  0.42788682  0.24381066    -0.72900
C368        C  0.70840941  0.44302964  0.22370572     0.97800
C369        C  0.64914936  0.55782633  0.23546307     0.94200
Al370      Al  0.71779820  0.55134692  0.26310282     1.55600
O371        O  0.62406239  0.44200090  0.20827052    -0.77500
C372        C  0.74183573  0.49954067  0.29240775     0.98400
C373        C  0.75551732  0.57514157  0.21057452     0.93300
O374        O  0.71819318  0.55266740  0.20137056    -0.82800
O375        O  0.49722935  0.71563417  0.32193517    -0.82300
C376        C  0.49037854  0.65878824  0.21587608     0.97100
O377        O  0.45918363  0.65623842  0.22937605    -0.71400
O378        O  0.42762147  0.61312463  0.27453148    -0.75000
Al379      Al  0.45208800  0.67259149  0.26419659     1.49000
C380        C  0.42526553  0.60252639  0.29891243     0.92300
O381        O  0.53091078  0.63506784  0.29244245    -0.81200
O382        O  0.58068325  0.76301352  0.28064031    -0.74800
Al383      Al  0.51294546  0.67444976  0.30781029     1.90100
O384        O  0.57856117  0.68619836  0.26540463    -0.73800
O385        O  0.53320563  0.75336872  0.23756951    -0.73700
O386        O  0.52863257  0.67806427  0.22476336    -0.79300
O387        O  0.46667322  0.72785397  0.25158753    -0.77600
O388        O  0.50531107  0.68806214  0.27472415    -1.13700
O389        O  0.43734017  0.68864136  0.29792962    -0.72900
C390        C  0.46417623  0.71713073  0.31400154     0.97800
C391        C  0.56239848  0.64858907  0.27540687     0.94200
Al392      Al  0.55168868  0.71790732  0.25389875     1.55600
O393        O  0.45551075  0.62681667  0.31450328    -0.77500
C394        C  0.49898645  0.75507849  0.23820504     0.98400
C395        C  0.58933131  0.75599311  0.30405829     0.93300
O396        O  0.57164475  0.71794642  0.31249968    -0.82800
O397        O  0.05696804  0.14942208  0.86665244    -0.82300
C398        C  0.00524438  0.16566967  0.97237607     0.97100
O399        O  0.01584074  0.13866824  0.96459490    -0.71400
O400        O  0.97486304  0.08676107  0.92407935    -0.75000
Al401      Al  0.03442754  0.12684674  0.93127915     1.49000
C402        C  0.95853086  0.07633332  0.90088457     0.92300
O403        O  0.97052594  0.17603379  0.89221218    -0.81200
O404        O  0.09941811  0.24810745  0.90271139    -0.74800
Al405      Al  0.01493372  0.16330289  0.88034317     1.90100
O406        O  0.01791794  0.23619334  0.91219658    -0.73800
O407        O  0.09729506  0.21907478  0.95188633    -0.73700
O408        O  0.01379816  0.19835286  0.95833055    -0.79300
O409        O  0.09411039  0.15880933  0.94137638    -0.77600
O410        O  0.03500702  0.17007803  0.91396452    -1.13700
O411        O  0.05310358  0.10859497  0.90103919    -0.72900
C412        C  0.06548435  0.12264957  0.87742964     0.97800
C413        C  0.97987924  0.21119021  0.90399081     0.94200
Al414      Al  0.05563750  0.22137043  0.92981945     1.55600
O415        O  0.97317019  0.10353313  0.88219675    -0.77500
C416        C  0.11171009  0.19386729  0.95418862     0.98400
C417        C  0.09151379  0.24734668  0.87781778     0.93300
O418        O  0.05380397  0.22151859  0.86919175    -0.82800
O419        O  0.82475698  0.36762268  0.98190061    -0.82300
C420        C  0.85595728  0.31591319  0.88211969     0.97100
O421        O  0.81900674  0.30144569  0.89263955    -0.71400
O422        O  0.77071390  0.26588401  0.93431159    -0.75000
Al423      Al  0.80008087  0.32355899  0.92050248     1.49000
C424        C  0.76015665  0.25818306  0.95859137     0.92300
O425        O  0.86471067  0.28876835  0.96069181    -0.81200
O426        O  0.91999037  0.41739279  0.95538108    -0.74800
Al427      Al  0.84478565  0.32765474  0.97290689     1.90100
O428        O  0.92066925  0.34210920  0.93857846    -0.73800
O429        O  0.88635988  0.41863133  0.90885410    -0.73700
O430        O  0.88945976  0.34746528  0.89202347    -0.79300
O431        O  0.81763998  0.37456544  0.90160335    -0.77600
O432        O  0.84821407  0.34365586  0.93891813    -1.13700
O433        O  0.77752868  0.34591936  0.94743760    -0.72900
C434        C  0.79508957  0.36941352  0.96832534     0.97800
C435        C  0.89842326  0.30231646  0.94537257     0.94200
Al436      Al  0.90020960  0.37873015  0.92493312     1.55600
O437        O  0.78637897  0.28258316  0.97580676    -0.77500
C438        C  0.85102258  0.41085487  0.89855803     0.98400
C439        C  0.92379911  0.40621089  0.97871048     0.93300
O440        O  0.90158979  0.36733723  0.98491642    -0.82800
O441        O  0.24441813  0.39997045  0.80882133    -0.82300
C442        C  0.30024006  0.45448661  0.70303268     0.97100
O443        O  0.27223770  0.41599799  0.70951428    -0.71400
O444        O  0.29623875  0.38675433  0.74856383    -0.75000
Al445      Al  0.24711351  0.39010883  0.74410265     1.49000
C446        C  0.32504153  0.39911597  0.76617294     0.92300
O447        O  0.34457422  0.50103596  0.78659073    -0.81200
O448        O  0.23050986  0.48329019  0.76848184    -0.74800
Al449      Al  0.29173742  0.44925077  0.79438050     1.90100
O450        O  0.31649838  0.53136025  0.76359532    -0.73800
O451        O  0.22363859  0.45189305  0.72079234    -0.73700
O452        O  0.30978989  0.48622406  0.71854048    -0.79300
O453        O  0.19327931  0.38646567  0.73659349    -0.77600
O454        O  0.26981102  0.44088335  0.76119441    -1.13700
O455        O  0.21876935  0.35499520  0.77499405    -0.72900
C456        C  0.21839615  0.36323176  0.79971496     0.97800
C457        C  0.34545382  0.53468715  0.77923345     0.94200
Al458      Al  0.27036834  0.48443253  0.74433293     1.55600
O459        O  0.32450115  0.42024247  0.78673777    -0.77500
C460        C  0.19192922  0.41413070  0.72199909     0.98400
C461        C  0.23469832  0.48763455  0.79370273     0.93300
O462        O  0.26144924  0.48021820  0.80631492    -0.82800
O463        O  0.42564066  0.23203536  0.70248868    -0.82300
C464        C  0.48316072  0.29247949  0.80753126     0.97100
O465        O  0.44496508  0.26355849  0.80131338    -0.71400
O466        O  0.41467704  0.28944211  0.76412874    -0.75000
Al467      Al  0.41814245  0.24027057  0.76701260     1.49000
C468        C  0.42076622  0.31387827  0.74463532     0.92300
O469        O  0.52112274  0.33893071  0.72226118    -0.81200
O470        O  0.51361572  0.22808429  0.73942873    -0.74800
Al471      Al  0.47258125  0.28343338  0.71523140     1.90100
O472        O  0.55795643  0.31609567  0.74425373    -0.73800
O473        O  0.48300335  0.21824020  0.78738117    -0.73700
O474        O  0.51469985  0.30430700  0.79131256    -0.79300
O475        O  0.41622473  0.18714808  0.77296936    -0.77600
O476        O  0.46795898  0.26370746  0.74871974    -1.13700
O477        O  0.38091272  0.21305211  0.73662966    -0.72900
C478        C  0.38842381  0.20889496  0.71222715     0.97800
C479        C  0.55690949  0.34395971  0.72936083     0.94200
Al480      Al  0.51369893  0.26668912  0.76424849     1.55600
O481        O  0.43749023  0.31023424  0.72270507    -0.77500
C482        C  0.44491349  0.18641730  0.78706704     0.98400
C483        C  0.52026852  0.23551764  0.71466866     0.93300
O484        O  0.50961549  0.26018872  0.70270998    -0.82800
O485        O  0.16673602  0.03909621  0.65019829    -0.82300
C486        C  0.18611015  0.98218822  0.54812044     0.97100
O487        O  0.15486346  0.98702834  0.55526655    -0.71400
O488        O  0.10594987  0.94862197  0.59672648    -0.75000
Al489      Al  0.14134115  0.00755176  0.58683110     1.49000
C490        C  0.09644676  0.93523130  0.62051917     0.92300
O491        O  0.20077171  0.95629733  0.62620634    -0.81200
O492        O  0.26264938  0.08578059  0.61439918    -0.74800
Al493      Al  0.18381224  0.99844274  0.63831249     1.90100
O494        O  0.25947536  0.00815870  0.60753483    -0.73800
O495        O  0.23231439  0.07761481  0.56484519    -0.73700
O496        O  0.22095171  0.99823212  0.56112474    -0.79300
O497        O  0.16710559  0.06460388  0.57306291    -0.77600
O498        O  0.18781786  0.01578564  0.60425107    -1.13700
O499        O  0.12201731  0.02773627  0.61615329    -0.72900
C500        C  0.13887256  0.04544737  0.63849070     0.97800
C501        C  0.23552943  0.96846368  0.61250599     0.94200
Al502      Al  0.23974558  0.04068662  0.58834663     1.55600
O503        O  0.12415349  0.95360350  0.63870149    -0.77500
C504        C  0.20256347  0.08553338  0.56069826     0.98400
C505        C  0.26499541  0.07891329  0.63912646     0.93300
O506        O  0.24192111  0.04116297  0.64847947    -0.82800
O507        O  0.39587214  0.81765073  0.53471578    -0.82300
C508        C  0.31883538  0.82572545  0.63169473     0.97100
O509        O  0.31422244  0.79197713  0.62080089    -0.71400
O510        O  0.28698136  0.75086587  0.57644048    -0.75000
Al511      Al  0.34281988  0.78162749  0.59272130     1.49000
C512        C  0.28158069  0.74269268  0.55177419     0.92300
O513        O  0.30435096  0.84375416  0.55073267    -0.81200
O514        O  0.43128378  0.90965111  0.56730860    -0.74800
Al515      Al  0.34962613  0.83036147  0.54158596     1.90100
O516        O  0.34893133  0.89858551  0.57749216    -0.73800
O517        O  0.42593246  0.87227305  0.61376846    -0.73700
O518        O  0.34657601  0.86271277  0.62336989    -0.79300
O519        O  0.39283938  0.80160489  0.61351798    -0.77600
O520        O  0.35988472  0.83121782  0.57663370    -1.13700
O521        O  0.37113669  0.76575355  0.56591775    -0.72900
C522        C  0.39867845  0.78837733  0.54774564     0.97800
C523        C  0.31225634  0.87581817  0.56622678     0.94200
Al524      Al  0.38620956  0.88174084  0.59388351     1.55600
O525        O  0.30781451  0.77041101  0.53569562    -0.77500
C526        C  0.42248358  0.83758527  0.62181829     0.98400
C527        C  0.42407274  0.91489300  0.54323871     0.93300
O528        O  0.38783069  0.88923200  0.53336394    -0.82800
O529        O  0.56721799  0.79857533  0.81336098    -0.82300
C530        C  0.49438560  0.80158882  0.71444504     0.97100
O531        O  0.53406554  0.81139571  0.71626913    -0.71400
O532        O  0.57223679  0.86632760  0.75414873    -0.75000
Al533      Al  0.56747953  0.81348520  0.74850426     1.49000
C534        C  0.56651956  0.88413557  0.77415691     0.92300
O535        O  0.46782559  0.80503123  0.79832981    -0.81200
O536        O  0.48128320  0.70478893  0.77762024    -0.74800
Al537      Al  0.51804750  0.80045275  0.80310810     1.90100
O538        O  0.43053779  0.74257694  0.77881156    -0.73800
O539        O  0.50098973  0.72659893  0.72783359    -0.73700
O540        O  0.46690817  0.77764198  0.73189375    -0.79300
O541        O  0.56911132  0.76280344  0.73886372    -0.77600
O542        O  0.52033793  0.78585782  0.76905472    -1.13700
O543        O  0.60842385  0.82169195  0.77737038    -0.72900
C544        C  0.60337010  0.81148426  0.80223989     0.97800
C545        C  0.43183175  0.77243724  0.79303563     0.94200
Al546      Al  0.47381157  0.74160412  0.75518110     1.55600
O547        O  0.55096604  0.86324054  0.79605265    -0.77500
C548        C  0.53859518  0.73247711  0.72607692     0.98400
C549        C  0.47288915  0.70359943  0.80230464     0.93300
O550        O  0.48270535  0.73848811  0.81527180    -0.82800
O551        O  0.73533470  0.14100964  0.70529214    -0.82300
C552        C  0.67666221  0.15027614  0.80765483     0.97100
O553        O  0.70560105  0.13993340  0.80350046    -0.71400
O554        O  0.68804522  0.08480985  0.76520518    -0.75000
Al555      Al  0.73517020  0.13883370  0.77016961     1.49000
C556        C  0.65715736  0.06615639  0.74911715     0.92300
O557        O  0.63958910  0.15166888  0.72430281    -0.81200
O558        O  0.75510350  0.24596077  0.74327237    -0.74800
Al559      Al  0.69070952  0.14834347  0.71861775     1.90100
O560        O  0.67074871  0.21241616  0.74531243    -0.73800
O561        O  0.75635724  0.22432362  0.79288230    -0.73700
O562        O  0.67016164  0.17325801  0.79123324    -0.79300
O563        O  0.78801671  0.19024233  0.77825589    -0.77600
O564        O  0.71271233  0.16491292  0.75153578    -1.13700
O565        O  0.76653965  0.13270641  0.74045182    -0.72900
C566        C  0.76368062  0.13476747  0.71518264     0.97800
C567        C  0.64141580  0.18651623  0.72997057     0.94200
Al568      Al  0.71274947  0.20963935  0.76676509     1.55600
O569        O  0.65443812  0.08654964  0.72886682    -0.77500
C570        C  0.78862009  0.21948933  0.79236625     0.98400
C571        C  0.75376374  0.24432604  0.71783341     0.93300
O572        O  0.72615693  0.20968523  0.70517038    -0.82800
O573        O  0.15004529  0.53104293  0.53431282    -0.82300
C574        C  0.12795394  0.45121323  0.63445637     0.97100
O575        O  0.16412109  0.47777369  0.62407058    -0.71400
O576        O  0.21102366  0.49287108  0.58111513    -0.75000
Al577      Al  0.17915167  0.51788655  0.59581481     1.49000
C578        C  0.21962432  0.49388773  0.55657218     0.92300
O579        O  0.11437666  0.41380274  0.55652283    -0.81200
O580        O  0.05660689  0.48480994  0.56507880    -0.74800
Al581      Al  0.13202080  0.47224830  0.54426574     1.90100
O582        O  0.05833261  0.40920356  0.57909699    -0.73800
O583        O  0.09013862  0.51756563  0.61230678    -0.73700
O584        O  0.09264038  0.44534796  0.62523993    -0.79300
O585        O  0.16029470  0.54982253  0.61561445    -0.77600
O586        O  0.13018889  0.48599499  0.57855073    -1.13700
O587        O  0.19741845  0.56147521  0.56841683    -0.72900
C588        C  0.17964313  0.56430764  0.54680896     0.97800
C589        C  0.08112200  0.39261804  0.57198952     0.94200
Al590      Al  0.07844314  0.46584757  0.59406356     1.55600
O591        O  0.19110901  0.48782445  0.53999842    -0.88300
C592        C  0.12517550  0.54784290  0.62141198     0.98400
C593        C  0.05284890  0.47143508  0.54113892     0.93300
O594        O  0.07395780  0.45389424  0.53410461    -0.82800
O595        O  0.92548164  0.08484670  0.65621816    -0.82300
C596        C  0.98689605  0.13545751  0.55060258     0.97100
O597        O  0.98905192  0.10766878  0.56478484    -0.71400
O598        O  0.02944325  0.11614856  0.60990849    -0.75000
Al599      Al  0.97033902  0.08337424  0.59887096     1.49000
C600        C  0.03854509  0.12047968  0.63455933     0.92300
O601        O  0.01484128  0.19806453  0.63007515    -0.81200
O602        O  0.88610336  0.12837310  0.61691018    -0.74800
Al603      Al  0.97122796  0.14154344  0.64369836     1.90100
O604        O  0.96821616  0.20051388  0.60149420    -0.73800
O605        O  0.89156539  0.08789093  0.57279368    -0.73700
O606        O  0.96934005  0.15595879  0.55948486    -0.79300
O607        O  0.91522077  0.04544309  0.58553874    -0.77600
O608        O  0.95769641  0.12232405  0.61000268    -1.13700
O609        O  0.95064801  0.05066987  0.63171158    -0.72900
C610        C  0.92252774  0.04971397  0.64791064     0.97800
C611        C  0.00487942  0.21873136  0.61329782     0.94200
Al612      Al  0.93073248  0.14179320  0.58954559     1.55600
O613        O  0.01477130  0.12625307  0.65073494    -0.77500
C614        C  0.88945020  0.05176112  0.57208740     0.98400
C615        C  0.89438139  0.14377342  0.64057188     0.93300
O616        O  0.93286547  0.16255657  0.64815561    -0.82800
O617        O  0.59297621  0.41966955  0.98903483    -0.82300
C618        C  0.64187647  0.47124764  0.88172568     0.97100
O619        O  0.63964117  0.43889056  0.89310073    -0.71400
O620        O  0.68783205  0.44967971  0.93542178    -0.75000
Al621      Al  0.62713767  0.41624918  0.92841894     1.49000
C622        C  0.70094783  0.45556753  0.95941072     0.92300
O623        O  0.67424044  0.53360411  0.95870463    -0.81200
O624        O  0.54404046  0.45892344  0.95016903    -0.74800
Al625      Al  0.63402171  0.47630111  0.97445493     1.90100
O626        O  0.62055181  0.53226918  0.93662521    -0.73800
O627        O  0.55098807  0.42306049  0.90426558    -0.73700
O628        O  0.62832577  0.49370369  0.89321976    -0.79300
O629        O  0.56889187  0.37741219  0.91943178    -0.77600
O630        O  0.61632464  0.45572930  0.94149538    -1.13700
O631        O  0.61524023  0.38595223  0.96173636    -0.72900
C632        C  0.59031267  0.38495782  0.98028948     0.97800
C633        C  0.66023331  0.55199522  0.94288704     0.94200
Al634      Al  0.58797863  0.47532554  0.92265869     1.55600
O635        O  0.68072840  0.46386263  0.97713585    -0.77500
C636        C  0.54546945  0.38561816  0.90476433     0.98400
C637        C  0.55286255  0.47568044  0.97352629     0.93300
O638        O  0.59118881  0.49223230  0.98219035    -0.82800
O639        O  0.83565217  0.86658924  0.86919060    -0.82300
C640        C  0.80411979  0.76604630  0.96122807     0.97100
O641        O  0.83942621  0.78511006  0.94845627    -0.71400
O642        O  0.88566879  0.80564312  0.90522736    -0.75000
Al643      Al  0.85940543  0.83242017  0.92521507     1.49000
C644        C  0.89333285  0.80999006  0.88046541     0.92300
O645        O  0.78596226  0.74276278  0.87884347    -0.81200
O646        O  0.73817239  0.81830857  0.89729764    -0.74800
Al647      Al  0.81085833  0.80449368  0.87234254     1.90100
O648        O  0.73496000  0.73952097  0.90698865    -0.73800
O649        O  0.77942003  0.84755283  0.94322227    -0.73700
O650        O  0.77202814  0.76951179  0.95433163    -0.79300
O651        O  0.84573399  0.86310303  0.95063595    -0.77600
O652        O  0.81018043  0.81086336  0.90756826    -1.13700
O653        O  0.88322943  0.88290401  0.90301854    -0.72900
C654        C  0.86613371  0.89418127  0.88458516     0.97800
C655        C  0.75288599  0.72146802  0.89450260     0.94200
Al656      Al  0.76006117  0.79485891  0.92395025     1.55600
O657        O  0.86708268  0.81316127  0.86575576    -0.77500
C658        C  0.81477268  0.86924828  0.95555936     0.98400
C659        C  0.73323347  0.80878963  0.87259466     0.93300
O660        O  0.75539106  0.79451714  0.86227844    -0.82800
O661        O  0.38916484  0.47097794  0.03607285    -0.82300
C662        C  0.32599400  0.45099896  0.14028463     0.97100
O663        O  0.36247004  0.45825590  0.13188200    -0.71400
O664        O  0.36150027  0.42045819  0.08537578    -0.75000
Al665      Al  0.39283224  0.47817636  0.09798702     1.49000
C666        C  0.32402777  0.39872966  0.07476131     0.92300
O667        O  0.29261141  0.48195478  0.04428209    -0.81200
O668        O  0.34558625  0.55512359  0.07824549    -0.74800
Al669      Al  0.34297548  0.47820629  0.04853244     1.90100
O670        O  0.26985237  0.47588790  0.08485593    -0.73800
O671        O  0.37346055  0.54413785  0.12409955    -0.73700
O672        O  0.30371465  0.46215025  0.12681667    -0.79300
O673        O  0.42680330  0.53436531  0.11160979    -0.77600
O674        O  0.35419026  0.48852484  0.08298883    -1.13700
O675        O  0.43396649  0.49711917  0.06884911    -0.72900
C676        C  0.42631766  0.48414474  0.04493690     0.97800
C677        C  0.26473059  0.47979435  0.06031724     0.94200
Al678      Al  0.32555887  0.50769844  0.10192350     1.55600
O679        O  0.30988886  0.41644682  0.05815281    -0.77500
C680        C  0.41297278  0.55512678  0.12457740     0.98400
C681        C  0.36932477  0.56764485  0.05708883     0.93300
O682        O  0.37602507  0.54146155  0.04248354    -0.82800
O683        O  0.22718896  0.15494858  0.15271555    -0.82300
C684        C  0.17764920  0.17677068  0.05191098     0.97100
O685        O  0.20986449  0.17352225  0.05892059    -0.71400
O686        O  0.24710439  0.20738793  0.10591428    -0.75000
Al687      Al  0.22274727  0.15120696  0.09087851     1.49000
C688        C  0.23030808  0.22606157  0.11888328     0.92300
O689        O  0.11617647  0.13553468  0.14847375    -0.81200
O690        O  0.09952754  0.06375486  0.11260178    -0.74800
Al691      Al  0.17197165  0.14367448  0.14214726     1.90100
O692        O  0.09724551  0.14086389  0.10857171    -0.73800
O693        O  0.13757946  0.08169533  0.06491595    -0.73700
O694        O  0.14305861  0.15926602  0.06541590    -0.79300
O695        O  0.20376993  0.09752069  0.07378807    -0.77600
O696        O  0.17268183  0.13580886  0.10714181    -1.13700
O697        O  0.24601550  0.13077249  0.11874886    -0.72900
C698        C  0.25051768  0.14158332  0.14324535     0.97800
C699        C  0.09022500  0.13843990  0.13340459     0.94200
Al700      Al  0.12340340  0.11317941  0.08950287     1.55600
O701        O  0.19717356  0.20531831  0.13463654    -0.77500
C702        C  0.16918958  0.07611343  0.06078311     0.98400
C703        C  0.11626756  0.05282916  0.13144779     0.93300
O704        O  0.14694950  0.08111554  0.14653976    -0.82800
O705        O  0.89875599  0.47654014  0.47886258    -0.82300
C706        C  0.82681710  0.47057347  0.37883269     0.97100
O707        O  0.86624160  0.48088778  0.38240778    -0.71400
O708        O  0.90567001  0.53432800  0.42139070    -0.75000
Al709      Al  0.89749735  0.48031980  0.41448578     1.49000
C710        C  0.89300397  0.55136798  0.43852918     0.92300
O711        O  0.79162793  0.46616797  0.46580395    -0.81200
O712        O  0.80684101  0.37257330  0.44131448    -0.74800
Al713      Al  0.84603909  0.46914194  0.46813192     1.90100
O714        O  0.75825795  0.40807758  0.44219941    -0.73800
O715        O  0.82925038  0.39605488  0.39198330    -0.73700
O716        O  0.79732639  0.44860502  0.39598883    -0.79300
O717        O  0.89657290  0.42863527  0.40434454    -0.77600
O718        O  0.84901366  0.45395338  0.43427155    -1.13700
O719        O  0.93654331  0.48484419  0.44255916    -0.72900
C720        C  0.93278078  0.48249517  0.46789029     0.97800
C721        C  0.75707920  0.43331365  0.45912512     0.94200
Al722      Al  0.80215506  0.41062272  0.41932801     1.55600
O723        O  0.87076240  0.53020052  0.45898708    -0.77500
C724        C  0.86574115  0.39927886  0.39132294     0.98400
C725        C  0.81266484  0.37438582  0.46647405     0.93300
O726        O  0.82136984  0.40822452  0.48036329    -0.82800
O727        O  0.06689929  0.80662792  0.37192165    -0.82300
C728        C  0.99914170  0.81653276  0.47167179     0.97100
O729        O  0.02803588  0.80620826  0.46842131    -0.71400
O730        O  0.01050826  0.74947098  0.43145217    -0.75000
Al731      Al  0.05841215  0.80353415  0.43657837     1.49000
C732        C  0.98281947  0.73142190  0.41327254     0.92300
O733        O  0.96774144  0.81403859  0.38454234    -0.81200
O734        O  0.07853798  0.91093057  0.40612596    -0.74800
Al735      Al  0.02011623  0.81259698  0.38198381     1.90100
O736        O  0.99311899  0.87375070  0.40673338    -0.73800
O737        O  0.07829287  0.89058643  0.45588149    -0.73700
O738        O  0.99239614  0.83804925  0.45418878    -0.79300
O739        O  0.11063433  0.85524680  0.44501834    -0.77600
O740        O  0.03787138  0.82948122  0.41571208    -1.13700
O741        O  0.09155622  0.79538473  0.40913763    -0.72900
C742        C  0.09290045  0.79900740  0.38385919     0.97800
C743        C  0.96555549  0.84650882  0.39104968     0.94200
Al744      Al  0.03551605  0.87404082  0.42938849     1.55600
O745        O  0.98423159  0.75165544  0.39190445    -0.77500
C746        C  0.11052653  0.88586284  0.45716985     0.98400
C747        C  0.08130390  0.90804678  0.38090605     0.93300
O748        O  0.05562855  0.87302393  0.36814367    -0.82800
O749        O  0.27069140  0.75602671  0.31408383    -0.82300
C750        C  0.32975951  0.85095093  0.21877375     0.97100
O751        O  0.34442795  0.82869165  0.22877753    -0.71400
O752        O  0.37626624  0.81169184  0.27084801    -0.75000
Al753      Al  0.32002401  0.78347950  0.25416557     1.49000
C754        C  0.38209808  0.80988653  0.29554969     0.92300
O755        O  0.34422191  0.87918496  0.29754511    -0.81200
O756        O  0.21706043  0.79664113  0.28660257    -0.74800
Al757      Al  0.30755474  0.81799688  0.30749221     1.90100
O758        O  0.28997092  0.87772004  0.27518110    -0.73800
O759        O  0.22468818  0.77005634  0.23983542    -0.73700
O760        O  0.29526060  0.84844549  0.22741678    -0.79300
O761        O  0.27151306  0.74959543  0.23218348    -0.77600
O762        O  0.29553019  0.80727354  0.27290042    -1.13700
O763        O  0.29605914  0.73568281  0.27863866    -0.72900
C764        C  0.27152619  0.72664849  0.29939938     0.97800
C765        C  0.32960443  0.89783745  0.28224632     0.94200
Al766      Al  0.25959949  0.82207766  0.25841809     1.55600
O767        O  0.35556649  0.81052735  0.31155169    -0.77500
C768        C  0.23468542  0.74503772  0.22861419     0.98400
C769        C  0.22414698  0.80854759  0.31080947     0.93300
O770        O  0.26251994  0.82792273  0.31883431    -0.82800
O771        O  0.47430773  0.20536284  0.19664108    -0.82300
C772        C  0.48875237  0.15183523  0.30039893     0.97100
O773        O  0.51764447  0.18225746  0.28675141    -0.71400
O774        O  0.54857812  0.17500743  0.24086478    -0.75000
Al775      Al  0.52163830  0.20641548  0.25292278     1.49000
C776        C  0.55227100  0.16931994  0.21619896     0.92300
O777        O  0.45001254  0.09153729  0.22028899    -0.81200
O778        O  0.38898048  0.15611496  0.23848833    -0.74800
Al779      Al  0.46311074  0.14845053  0.20800556     1.90100
O780        O  0.40170990  0.08694672  0.25063015    -0.73800
O781        O  0.43759946  0.19660565  0.28127369    -0.73700
O782        O  0.45024984  0.13000403  0.29196735    -0.79300
O783        O  0.50320539  0.24278236  0.26740874    -0.77600
O784        O  0.46934705  0.16628458  0.24208962    -1.13700
O785        O  0.53444462  0.23936650  0.22033329    -0.72900
C786        C  0.50680429  0.24048184  0.20503420     0.97800
C787        C  0.42018414  0.07004079  0.23776800     0.94200
Al788      Al  0.42319366  0.14421552  0.26366038     1.55600
O789        O  0.52254801  0.16398316  0.20039822    -0.77500
C790        C  0.47038208  0.23398517  0.28151211     0.98400
C791        C  0.38015220  0.14116996  0.21472215     0.93300
O792        O  0.40292796  0.12762896  0.20410552    -0.82800
C793        C  0.40425992  0.02413693  0.24419670    -0.00600
C794        C  0.42112187  0.01442580  0.26699087    -0.12500
C795        C  0.39808288  0.97383649  0.27990414     0.01600
C796        C  0.35739497  0.94186060  0.26996730    -0.00700
C797        C  0.34162751  0.95160745  0.24654380    -0.12500
C798        C  0.36405823  0.99203694  0.23406692     0.01500
H799        H  0.45094761  0.03966768  0.27584401     0.14500
H800        H  0.31057685  0.92797965  0.23818506     0.14500
C801        C  0.34323970  0.00116376  0.21230992     0.36100
C802        C  0.41500177  0.96705718  0.30446200     0.36000
N803        N  0.32632084  0.00865731  0.19514323    -0.44200
N804        N  0.42786125  0.96116092  0.32435180    -0.44200
C805        C  0.12549099  0.79551009  0.36719555    -0.00600
C806        C  0.11393213  0.77918492  0.34081353    -0.12500
C807        C  0.14481916  0.78166264  0.32230084     0.01600
C808        C  0.18878795  0.80131141  0.32997781    -0.00700
C809        C  0.19981619  0.81553874  0.35691066    -0.12500
C810        C  0.16876202  0.81274467  0.37545421     0.01500
H811        H  0.08056234  0.76533661  0.33436465     0.14500
H812        H  0.23317719  0.83007591  0.36346711     0.14500
C813        C  0.18281591  0.83030738  0.40220202     0.36100
C814        C  0.13020998  0.76453904  0.29554358     0.36000
N815        N  0.19410748  0.84437531  0.42363011    -0.44200
N816        N  0.11830683  0.75067968  0.27414670    -0.44200
C817        C  0.94958781  0.68548264  0.41834234    -0.00600
C818        C  0.93776368  0.67216584  0.44540737    -0.12500
C819        C  0.91577351  0.62841878  0.45274073     0.01600
C820        C  0.90546434  0.59686713  0.43271180    -0.00700
C821        C  0.91340756  0.61011794  0.40541852    -0.12500
C822        C  0.93542722  0.65373816  0.39812738     0.01500
H823        H  0.94848456  0.69632508  0.46126362     0.14500
H824        H  0.90519472  0.58625758  0.38962195     0.14500
C825        C  0.94741195  0.66480181  0.37020744     0.36100
C826        C  0.90761711  0.61729034  0.48095026     0.36000
N827        N  0.95731866  0.67357591  0.34784807    -0.44200
N828        N  0.90106254  0.60853989  0.50359232    -0.44200
C829        C  0.28280693  0.13974582  0.16156779    -0.00600
C830        C  0.29316832  0.16267573  0.18629324    -0.12500
C831        C  0.32338750  0.16276424  0.20437815     0.01600
C832        C  0.34425519  0.13934496  0.19811620    -0.00700
C833        C  0.33283824  0.11539079  0.17377549    -0.12500
C834        C  0.30278316  0.11542988  0.15568865     0.01500
H835        H  0.27811884  0.18145198  0.19144335     0.14500
H836        H  0.34787875  0.09664715  0.16852392     0.14500
C837        C  0.29278140  0.08969352  0.13145548     0.36100
C838        C  0.33318973  0.18831731  0.22869414     0.36000
N839        N  0.28472351  0.06904296  0.11203068    -0.44200
N840        N  0.34104079  0.20884715  0.24816467    -0.44200
C841        C  0.25078290  0.27273319  0.11301678    -0.00600
C842        C  0.22946780  0.28677677  0.09572669    -0.12500
C843        C  0.25208818  0.32665872  0.08193611     0.01600
C844        C  0.29747573  0.35311303  0.08496525    -0.00700
C845        C  0.31841892  0.33827011  0.10231571    -0.12500
C846        C  0.29577692  0.29926384  0.11625730     0.01500
H847        H  0.19515977  0.26576420  0.09255550     0.14500
H848        H  0.35313483  0.35737464  0.10541621     0.14500
C849        C  0.31979875  0.28624266  0.13324232     0.36100
C850        C  0.22792646  0.33967594  0.06523387     0.36000
N851        N  0.33893657  0.27571690  0.14683310    -0.44200
N852        N  0.20855081  0.35018016  0.05185232    -0.44200
C853        C  0.73423150  0.67509253  0.90084773    -0.00600
C854        C  0.75490312  0.66340609  0.92033768    -0.12500
C855        C  0.73226523  0.62404896  0.93473251     0.01600
C856        C  0.68776152  0.59541507  0.92971870    -0.00700
C857        C  0.66784999  0.60720483  0.90952881    -0.12500
C858        C  0.69030221  0.64614777  0.89544675     0.01500
H859        H  0.78818065  0.68634441  0.92536453     0.14500
H860        H  0.63399478  0.58605428  0.90457858     0.14500
C861        C  0.66686409  0.65679053  0.87633624     0.36100
C862        C  0.75505586  0.61441217  0.95479120     0.36000
N863        N  0.64807371  0.66539742  0.86111156    -0.44200
N864        N  0.77323853  0.60656356  0.97091937    -0.44200
C865        C  0.45978068  0.48315076  0.02702682    -0.00600
C866        C  0.45229426  0.47764577  0.99898818    -0.12500
C867        C  0.48143945  0.47458238  0.98121421     0.01600
C868        C  0.51951622  0.47711926  0.99123684    -0.00700
C869        C  0.52694271  0.48246753  0.01926026    -0.12500
C870        C  0.49768318  0.48519366  0.03706251     0.01500
H871        H  0.42342945  0.47583036  0.99076017     0.14500
H872        H  0.55567309  0.48397700  0.02748832     0.14500
C873        C  0.50686596  0.48839622  0.06557242     0.36100
C874        C  0.47185941  0.47011884  0.95275444     0.36000
N875        N  0.51426388  0.49073358  0.08841110    -0.44200
N876        N  0.46412043  0.46662523  0.92994236    -0.44200
C877        C  0.02401779  0.47599903  0.52142155    -0.00600
C878        C  0.99968196  0.49448037  0.53021788    -0.12500
C879        C  0.97147284  0.49876575  0.51281707     0.01600
C880        C  0.96714657  0.48467137  0.48562437    -0.00700
C881        C  0.99262125  0.46778834  0.47642456    -0.12500
C882        C  0.02059794  0.46305783  0.49391286     0.01500
H883        H  0.00220802  0.50525623  0.55095953     0.14500
H884        H  0.98932561  0.45650597  0.45574699     0.14500
C885        C  0.04443285  0.44392199  0.48285624     0.36100
C886        C  0.94732194  0.51777620  0.52362305     0.36000
N887        N  0.06331984  0.42844498  0.47386318    -0.44200
N888        N  0.92779698  0.53276306  0.53232212    -0.44200
C889        C  0.06804151  0.34906341  0.58379008    -0.00600
C890        C  0.04381250  0.33739735  0.60808916    -0.12500
C891        C  0.02723418  0.29646648  0.61968823     0.01600
C892        C  0.03424507  0.26534359  0.60716140    -0.00700
C893        C  0.06059179  0.27738358  0.58382946    -0.12500
C894        C  0.07802644  0.31899172  0.57235193     0.01500
H895        H  0.03670388  0.36007921  0.61798805     0.14500
H896        H  0.06563757  0.25344267  0.57371215     0.14500
C897        C  0.10378336  0.32897226  0.54809036     0.36100
C898        C  0.00107391  0.28627157  0.64384691     0.36000
N899        N  0.12443532  0.33698371  0.52860977    -0.44200
N900        N  0.98020710  0.27807405  0.66324321    -0.44200
C901        C  0.79512832  0.13237591  0.69651574    -0.00600
C902        C  0.83755185  0.14834701  0.70534214    -0.12500
C903        C  0.87003575  0.15243579  0.68764946     0.01600
C904        C  0.86040768  0.13991621  0.66002649    -0.00700
C905        C  0.81739674  0.12230555  0.65146746    -0.12500
C906        C  0.78494551  0.11854139  0.66929562     0.01500
H907        H  0.84583993  0.15920277  0.72606819     0.14500
H908        H  0.80904761  0.11169815  0.63072617     0.14500
C909        C  0.74133305  0.09973440  0.65911347     0.36100
C910        C  0.91285246  0.16995511  0.69895551     0.36000
N911        N  0.70638821  0.08465709  0.65095031    -0.44200
N912        N  0.94700608  0.18406287  0.70822856    -0.44200
C913        C  0.63912751  0.81423514  0.81966167    -0.00600
C914        C  0.63176527  0.80823746  0.84781558    -0.12500
C915        C  0.66213844  0.80774418  0.86540670     0.01600
C916        C  0.70146054  0.81316242  0.85523333    -0.00700
C917        C  0.70952922  0.82020832  0.82724218    -0.12500
C918        C  0.67924098  0.82117767  0.80959299     0.01500
H919        H  0.60158178  0.80319285  0.85635331     0.14500
H920        H  0.73970458  0.82474795  0.81900334     0.14500
C921        C  0.69008034  0.82865916  0.78128918     0.36100
C922        C  0.65091680  0.79927471  0.89362896     0.36000
N923        N  0.69883018  0.83482844  0.75860251    -0.44200
N924        N  0.64192670  0.79238017  0.91624537    -0.44200
C925        C  0.62553380  0.01972465  0.75592195    -0.00600
C926        C  0.62653483  0.00583635  0.78255519    -0.12500
C927        C  0.60434586  0.96211973  0.78985489     0.01600
C928        C  0.58027134  0.93055883  0.77042235    -0.00700
C929        C  0.57603294  0.94432473  0.74446201    -0.12500
C930        C  0.59813215  0.98828904  0.73715105     0.01500
H931        H  0.64628929  0.02927374  0.79779653     0.14500
H932        H  0.55707005  0.92031386  0.72927721     0.14500
C933        C  0.59420909  0.99977609  0.70992554     0.36100
C934        C  0.61004121  0.95043894  0.81667885     0.36000
N935        N  0.59098274  0.00900219  0.68809803    -0.44200
N936        N  0.61460619  0.94091910  0.83813720    -0.44200
C937        C  0.24750929  0.69911833  0.54244086    -0.00600
C938        C  0.20798898  0.67764769  0.55647245    -0.12500
C939        C  0.18027869  0.63302556  0.55349852     0.01600
C940        C  0.19357636  0.60863942  0.53809439    -0.00700
C941        C  0.23035202  0.63046628  0.52163851    -0.12500
C942        C  0.25629821  0.67566979  0.52284953     0.01500
H943        H  0.19949686  0.69542366  0.57051747     0.14500
H944        H  0.24046444  0.61211373  0.50926790     0.14500
C945        C  0.29274279  0.69664527  0.50474584     0.36100
C946        C  0.13887645  0.61250315  0.56712427     0.36000
N947        N  0.32106368  0.71330542  0.48952103    -0.44200
N948        N  0.10511333  0.59642399  0.57735489    -0.44200
C949        C  0.44604046  0.83692636  0.64568080    -0.00600
C950        C  0.42002949  0.81875836  0.66840774    -0.12500
C951        C  0.43513322  0.80782169  0.69088633     0.01600
C952        C  0.47854670  0.81637725  0.69146209    -0.00700
C953        C  0.50576966  0.83750956  0.66911674    -0.12500
C954        C  0.48964792  0.84760096  0.64612113     0.01500
H955        H  0.38639666  0.81079423  0.66798722     0.14500
H956        H  0.53904029  0.84463577  0.66914022     0.14500
C957        C  0.51752497  0.86705861  0.62304820     0.36100
C958        C  0.40345872  0.78531595  0.71193914     0.36000
N959        N  0.53986811  0.88256314  0.60450122    -0.44200
N960        N  0.37727601  0.76656107  0.72822011    -0.44200
C961        C  0.12630638  0.07610292  0.64875335    -0.00600
C962        C  0.08883954  0.06022109  0.66464105    -0.12500
C963        C  0.06277990  0.07902897  0.66330851     0.01600
C964        C  0.07269281  0.11223044  0.64443446    -0.00700
C965        C  0.11281227  0.13131316  0.63111818    -0.12500
C966        C  0.14035729  0.11453036  0.63408361     0.01500
H967        H  0.07786403  0.03087513  0.67615116     0.14500
H968        H  0.12156750  0.15778922  0.61729536     0.14500
C969        C  0.18144636  0.13494948  0.62003816     0.36100
C970        C  0.02436638  0.06133423  0.67990978     0.36000
N971        N  0.21474920  0.15165723  0.60920807    -0.44200
N972        N  0.99423770  0.04775385  0.69381850    -0.44200
C973        C  0.24817831  0.93848563  0.59933519    -0.00600
C974        C  0.27138653  0.95204186  0.57467558    -0.12500
C975        C  0.28658900  0.92791292  0.56122697     0.01600
C976        C  0.28031329  0.88944800  0.57249841    -0.00700
C977        C  0.25624604  0.87488244  0.59675364    -0.12500
C978        C  0.23988565  0.89871304  0.61006881     0.01500
H979        H  0.27944588  0.98276290  0.56601884     0.14500
H980        H  0.25331534  0.84667088  0.60647503     0.14500
C981        C  0.21887067  0.88401852  0.63591793     0.36100
C982        C  0.31213243  0.94532162  0.53695685     0.36000
N983        N  0.20240943  0.87242584  0.65679240    -0.44200
N984        N  0.33269728  0.95921696  0.51755689    -0.44200
C985        C  0.14524979  0.91416415  0.47546513    -0.00600
C986        C  0.15471043  0.89473628  0.49673043    -0.12500
C987        C  0.17142332  0.91728464  0.52089316     0.01600
C988        C  0.18226707  0.96072997  0.52258278    -0.00700
C989        C  0.17869829  0.98163445  0.50004062    -0.12500
C990        C  0.15850104  0.95841095  0.47696124     0.01500
H991        H  0.14308749  0.86038864  0.49598869     0.14500
H992        H  0.18610826  0.01482105  0.50182913     0.14500
C993        C  0.14504015  0.97911350  0.45764433     0.36100
C994        C  0.17029459  0.89340018  0.54447161     0.36000
N995        N  0.13322292  0.99614955  0.44323452    -0.44200
N996        N  0.16809435  0.87330075  0.56318392    -0.44200
C997        C  0.54952006  0.22216513  0.70301335    -0.00600
C998        C  0.59325534  0.25353099  0.70590528    -0.12500
C999        C  0.62349641  0.24262032  0.71442442     0.01600
C1000       C  0.61103061  0.19870275  0.71805038    -0.00700
C1001       C  0.56866491  0.16680217  0.71094620    -0.12500
C1002       C  0.53772104  0.17826861  0.70404121     0.01500
H1003       H  0.60248204  0.28718339  0.70669471     0.14500
H1004       H  0.55868591  0.13301165  0.71309013     0.14500
C1005       C  0.49291601  0.14474897  0.70142668     0.36100
C1006       C  0.66542917  0.27789406  0.72233533     0.36000
N1007       N  0.45692998  0.11793685  0.69948826    -0.44200
N1008       N  0.69816203  0.30656179  0.72950139    -0.44200
C1009       C  0.29505588  0.11422852  0.65744584    -0.00600
C1010       C  0.28866448  0.10799938  0.68550560    -0.12500
C1011       C  0.31732338  0.13895242  0.70387111     0.01600
C1012       C  0.35391577  0.17693972  0.69424872    -0.00700
C1013       C  0.35922698  0.18397876  0.66623778    -0.12500
C1014       C  0.33017313  0.15349385  0.64789681     0.01500
H1015       H  0.26124378  0.07857182  0.69324069     0.14500
H1016       H  0.38659617  0.21346513  0.65850618     0.14500
C1017       C  0.33810865  0.16331877  0.61949212     0.36100
C1018       C  0.30891575  0.13003911  0.73233294     0.36000
N1019       N  0.34436757  0.17134992  0.59674754    -0.44200
N1020       N  0.30197400  0.12292717  0.75513195    -0.44200
C1021       C  0.49137415  0.31014346  0.83481536    -0.00600
C1022       C  0.47856441  0.33965447  0.84201089    -0.12500
C1023       C  0.49111935  0.36136600  0.86673280     0.01600
C1024       C  0.51708287  0.35337899  0.88451635    -0.00700
C1025       C  0.52479772  0.31953438  0.87846468    -0.12500
C1026       C  0.51258372  0.29828678  0.85366390     0.01500
H1027       H  0.46066136  0.34732560  0.82776549     0.14500
H1028       H  0.54365986  0.31201699  0.89204676     0.14500
C1029       C  0.52358817  0.26560428  0.84760138     0.36100
C1030       C  0.47864025  0.39299551  0.87252100     0.36000
N1031       N  0.53241144  0.23941961  0.84283663    -0.44200
N1032       N  0.46853258  0.41832476  0.87694542    -0.44200
C1033       C  0.44034239  0.65991714  0.81151899    -0.00600
C1034       C  0.39796242  0.64999881  0.80593871    -0.12500
C1035       C  0.36821838  0.61104442  0.79367263     0.01600
C1036       C  0.37781302  0.57757751  0.79073652    -0.00700
C1037       C  0.41794506  0.58496309  0.80041563    -0.12500
C1038       C  0.44960203  0.62615769  0.80982850     0.01500
H1039       H  0.39056539  0.67541193  0.80621181     0.14500
H1040       H  0.42575330  0.55958133  0.79888389     0.14500
C1041       C  0.49259501  0.63431732  0.81547983     0.36100
C1042       C  0.33014423  0.60864787  0.78204909     0.36000
N1043       N  0.52705944  0.64081287  0.82004504    -0.44200
N1044       N  0.30044587  0.60760722  0.77215932    -0.44200
C1045       C  0.35875697  0.38723775  0.76120560    -0.00600
C1046       C  0.36613537  0.37959315  0.73419371    -0.12500
C1047       C  0.38954131  0.35912588  0.72781574     0.01600
C1048       C  0.40599874  0.34547586  0.74874508    -0.00700
C1049       C  0.40265152  0.35732897  0.77555543    -0.12500
C1050       C  0.37944138  0.37807462  0.78191514     0.01500
H1051       H  0.35135384  0.38742279  0.71788958     0.14500
H1052       H  0.41623122  0.34817300  0.79190913     0.14500
C1053       C  0.37477335  0.38650924  0.80987206     0.36100
C1054       C  0.39315096  0.34971771  0.69988601     0.36000
N1055       N  0.37114127  0.39337685  0.83228590    -0.44200
N1056       N  0.39612603  0.34229267  0.67748257    -0.44200
C1057       C  0.15621673  0.40335342  0.70361789    -0.00600
C1058       C  0.13546537  0.42731061  0.70674274    -0.12500
C1059       C  0.12162070  0.43999154  0.68417537     0.01600
C1060       C  0.12769640  0.42750779  0.65831261    -0.00700
C1061       C  0.14251814  0.39837627  0.65555518    -0.12500
C1062       C  0.15680185  0.38608155  0.67810580     0.01500
H1063       H  0.13577082  0.44125134  0.72628976     0.14500
H1064       H  0.14693845  0.38871081  0.63555263     0.14500
C1065       C  0.17849782  0.36186032  0.67390223     0.36100
C1066       C  0.10747189  0.47082011  0.68780562     0.36000
N1067       N  0.19613173  0.34272546  0.67040916    -0.44200
N1068       N  0.09655704  0.49580655  0.69097571    -0.44200
C1069       C  0.78183171  0.40164873  0.97408454    -0.00600
C1070       C  0.79508211  0.43527213  0.95526738    -0.12500
C1071       C  0.77142161  0.45628868  0.95158686     0.01600
C1072       C  0.73422612  0.44452804  0.96738965    -0.00700
C1073       C  0.72399369  0.41448144  0.98835255    -0.12500
C1074       C  0.74708961  0.39266731  0.99154972     0.01500
H1075       H  0.82177108  0.44249077  0.94169162     0.14500
H1076       H  0.69547198  0.40512329  0.00069444     0.14500
C1077       C  0.73262966  0.35909803  0.01151931     0.36100
C1078       C  0.78446758  0.48809650  0.93050440     0.36000
N1079       N  0.72114107  0.33253838  0.02779405    -0.44200
N1080       N  0.79483550  0.51353957  0.91357763    -0.44200
C1081       C  0.82462931  0.24656413  0.81029924    -0.00600
C1082       C  0.84048035  0.29104175  0.80931353    -0.12500
C1083       C  0.85739600  0.31642982  0.83233956     0.01600
C1084       C  0.85842406  0.29691841  0.85660678    -0.00700
C1085       C  0.84855995  0.25389984  0.85659757    -0.12500
C1086       C  0.83186071  0.22849367  0.83341432     0.01500
H1087       H  0.83447946  0.30483595  0.79162503     0.14500
H1088       H  0.84937597  0.23901516  0.87539244     0.14500
C1089       C  0.81624510  0.18283194  0.83517283     0.36100
C1090       C  0.86691710  0.36054726  0.83155988     0.36000
N1091       N  0.80364748  0.14622551  0.83662377    -0.44200
N1092       N  0.87424285  0.39577058  0.83069447    -0.44200
C1093       C  0.12562658  0.27616842  0.85816704    -0.00600
C1094       C  0.11554910  0.27057435  0.83043171    -0.12500
C1095       C  0.14564588  0.29698850  0.81086189     0.01600
C1096       C  0.18699295  0.33040959  0.81882817    -0.00700
C1097       C  0.19772413  0.33500013  0.84638671    -0.12500
C1098       C  0.16789275  0.30822612  0.86594546     0.01500
H1099       H  0.08372360  0.24558279  0.82383643     0.14500
H1100       H  0.22966406  0.36006300  0.85279793     0.14500
C1101       C  0.18187951  0.31490913  0.89370540     0.36100
C1102       C  0.13239213  0.29000650  0.78295548     0.36000
N1103       N  0.19327028  0.32022572  0.91591390    -0.44200
N1104       N  0.12175757  0.28430247  0.76059666    -0.44200
C1105       C  0.92604470  0.03073038  0.89445010    -0.00600
C1106       C  0.92854608  0.01395570  0.86908250    -0.12500
C1107       C  0.90632435  0.96924001  0.86409677     0.01600
C1108       C  0.88019867  0.94065812  0.88444513    -0.00700
C1109       C  0.87444909  0.95781049  0.90865036    -0.12500
C1110       C  0.89725764  0.00213355  0.91399279     0.01500
H1111       H  0.95057296  0.03555281  0.85377979     0.14500
H1112       H  0.85376707  0.93610879  0.92428005     0.14500
C1113       C  0.89165560  0.01715809  0.93998168     0.36100
C1114       C  0.91348446  0.95355735  0.83891122     0.36000
N1115       N  0.88719236  0.02914405  0.96081868    -0.44200
N1116       N  0.91945403  0.94147304  0.81855940    -0.44200
C1117       C  0.94812490  0.22543429  0.90897934    -0.00600
C1118       C  0.92000520  0.20892822  0.93138348    -0.12500
C1119       C  0.90222604  0.23230077  0.94353083     0.01600
C1120       C  0.91249711  0.27295344  0.93312431    -0.00700
C1121       C  0.93774120  0.28719767  0.90929370    -0.12500
C1122       C  0.95553938  0.26421633  0.89744989     0.01500
H1123       H  0.91440735  0.17925125  0.94049374     0.14500
H1124       H  0.94500634  0.31742242  0.90009908     0.14500
C1125       C  0.98371867  0.28247284  0.87428116     0.36100
C1126       C  0.87627750  0.21542844  0.96759917     0.36000
N1127       N  0.00637459  0.29704519  0.85576306    -0.44200
N1128       N  0.85548320  0.20226182  0.98696942    -0.44200
C1129       C  0.17716338  0.19616526  0.02585330    -0.00600
C1130       C  0.18506702  0.17897914  0.00243560    -0.12500
C1131       C  0.16739625  0.18065109  0.97756361     0.01600
C1132       C  0.14408184  0.20262663  0.97561947    -0.00700
C1133       C  0.14328313  0.22622900  0.99811840    -0.12500
C1134       C  0.15713209  0.22115532  0.02335122     0.01500
H1135       H  0.20001186  0.15932742  0.00419840     0.14500
H1136       H  0.12559023  0.24333064  0.99715320     0.14500
C1137       C  0.14297551  0.23537121  0.04652510     0.36100
C1138       C  0.17073324  0.15651046  0.95528513     0.36000
N1139       N  0.12945725  0.24572825  0.06449910    -0.44200
N1140       N  0.17372540  0.13651816  0.93792134    -0.44200
C1141       C  0.41502127  0.79984395  0.30603706    -0.00600
C1142       C  0.40467166  0.77473619  0.32961669    -0.12500
C1143       C  0.42610327  0.75235220  0.33600712     0.01600
C1144       C  0.45888334  0.75509582  0.31888722    -0.00700
C1145       C  0.47474091  0.78678429  0.29854522    -0.12500
C1146       C  0.45267284  0.80853253  0.29166112     0.01500
H1147       H  0.37748942  0.76974687  0.34205441     0.14500
H1148       H  0.50203382  0.79159456  0.28636151     0.14500
C1149       C  0.46848735  0.83866976  0.26953588     0.36100
C1150       C  0.41399952  0.72730534  0.36039040     0.36000
N1151       N  0.48121223  0.86314722  0.25194824    -0.44200
N1152       N  0.40428118  0.70906784  0.38071480    -0.44200
C1153       C  0.48071075  0.64000053  0.18877423    -0.00600
C1154       C  0.45331629  0.64796082  0.17286427    -0.12500
C1155       C  0.43418755  0.62352969  0.14981647     0.01600
C1156       C  0.44210498  0.59011857  0.14271953    -0.00700
C1157       C  0.47363170  0.58580755  0.15672399    -0.12500
C1158       C  0.49311557  0.61066540  0.17971391     0.01500
H1159       H  0.44507105  0.67185864  0.17928445     0.14500
H1160       H  0.48044655  0.56062649  0.15108048     0.14500
C1161       C  0.52282576  0.60283529  0.19456054     0.36100
C1162       C  0.40511687  0.63210788  0.13462642     0.36000
N1163       N  0.54694979  0.59616165  0.20583029    -0.44200
N1164       N  0.38171673  0.63901670  0.12262162    -0.44200
C1165       C  0.56083918  0.37300562  0.21377852    -0.00600
C1166       C  0.56670534  0.35723268  0.18893495    -0.12500
C1167       C  0.54179948  0.31312210  0.18230631     0.01600
C1168       C  0.51167016  0.28377177  0.20096811    -0.00700
C1169       C  0.50012369  0.30086333  0.22298883    -0.12500
C1170       C  0.52429715  0.34506926  0.22949616     0.01500
H1171       H  0.59239604  0.37874125  0.17532275     0.14500
H1172       H  0.47436352  0.27911638  0.23640235     0.14500
C1173       C  0.51158919  0.36088034  0.25254211     0.36100
C1174       C  0.54596509  0.29899787  0.15581160     0.36000
N1175       N  0.50135431  0.37387231  0.27084724    -0.44200
N1176       N  0.54830058  0.28848714  0.13404834    -0.44200
C1177       C  0.62302768  0.57928021  0.24075044    -0.00600
C1178       C  0.58060075  0.55579488  0.25140621    -0.12500
C1179       C  0.56033079  0.57687018  0.26389228     0.01600
C1180       C  0.58249791  0.62254174  0.26582213    -0.00700
C1181       C  0.62443624  0.64556281  0.25441659    -0.12500
C1182       C  0.64432559  0.62481306  0.24204279     0.01500
H1183       H  0.56375818  0.52092261  0.25057911     0.14500
H1184       H  0.64222521  0.68055751  0.25500677     0.14500
C1185       C  0.68731986  0.65138724  0.23087943     0.36100
C1186       C  0.51631525  0.55113699  0.27343925     0.36000
N1187       N  0.72176462  0.67259292  0.22197524    -0.44200
N1188       N  0.48092146  0.53061041  0.28101829    -0.44200
C1189       C  0.77162317  0.49501047  0.31064652    -0.00600
C1190       C  0.76245237  0.45298207  0.31619902    -0.12500
C1191       C  0.78297380  0.44507607  0.33716484     0.01600
C1192       C  0.81323147  0.47962348  0.35316462    -0.00700
C1193       C  0.82584440  0.52206901  0.34612735    -0.12500
C1194       C  0.80546039  0.53015127  0.32479272     0.01500
H1195       H  0.73783680  0.42584038  0.30476981     0.14500
H1196       H  0.84959130  0.54863212  0.35823201     0.14500
C1197       C  0.81798853  0.57434809  0.31918226     0.36100
C1198       C  0.77155742  0.40097356  0.34222400     0.36000
N1199       N  0.82826668  0.60983302  0.31466025    -0.44200
N1200       N  0.76233787  0.36556466  0.34594798    -0.44200
C1201       C  0.79169815  0.60447556  0.19205693    -0.00600
C1202       C  0.78393175  0.60090442  0.16404182    -0.12500
C1203       C  0.81537372  0.62912001  0.14560976     0.01600
C1204       C  0.85602341  0.66227924  0.15499922    -0.00700
C1205       C  0.86449979  0.66471544  0.18284301    -0.12500
C1206       C  0.83315236  0.63631519  0.20126792     0.01500
H1207       H  0.75268222  0.57632030  0.15637308     0.14500
H1208       H  0.89570042  0.68958360  0.19041441     0.14500
C1209       C  0.84439037  0.64172687  0.22949240     0.36100
C1210       C  0.80391745  0.62439648  0.11740064     0.36000
N1211       N  0.85360460  0.64619920  0.25209173    -0.44200
N1212       N  0.79458948  0.62049491  0.09482297    -0.44200
C1213       C  0.05119133  0.91488745  0.12451032    -0.00600
C1214       C  0.05519730  0.93317417  0.15038156    -0.12500
C1215       C  0.08030026  0.97841636  0.15438346     0.01600
C1216       C  0.10107006  0.00571463  0.13218855    -0.00700
C1217       C  0.10032292  0.98654047  0.10718737    -0.12500
C1218       C  0.07575050  0.94195011  0.10318064     0.01500
H1219       H  0.03644254  0.91253387  0.16700386     0.14500
H1220       H  0.11683044  0.00676054  0.09010321     0.14500
C1221       C  0.07400937  0.92473284  0.07648844     0.36100
C1222       C  0.08249489  0.99599362  0.18089942     0.36000
N1223       N  0.07242812  0.91057349  0.05521652    -0.44200
N1224       N  0.08474290  0.00977983  0.20236340    -0.44200
C1225       C  0.82980752  0.73673252  0.03856802    -0.00600
C1226       C  0.83846229  0.71825741  0.01617802    -0.12500
C1227       C  0.82720759  0.72397012  0.99024345     0.01600
C1228       C  0.80324224  0.74501288  0.98682973    -0.00700
C1229       C  0.78868699  0.75720530  0.00975933    -0.12500
C1230       C  0.80349233  0.75508435  0.03543321     0.01500
H1231       H  0.85974781  0.70519232  0.01843878     0.14500
H1232       H  0.77105937  0.77417862  0.00733689     0.14500
C1233       C  0.79597592  0.77684063  0.05752883     0.36100
C1234       C  0.84570605  0.71316044  0.96766630     0.36000
N1235       N  0.79023259  0.79490002  0.07498753    -0.44200
N1236       N  0.86136774  0.70489362  0.94986469    -0.44200
C1237       C  0.23149598  0.48986014  0.05040630    -0.00600
C1238       C  0.24306257  0.51846783  0.02841432    -0.12500
C1239       C  0.22030183  0.53979570  0.02283007     0.01600
C1240       C  0.18414445  0.53158395  0.03861587    -0.00700
C1241       C  0.16898417  0.49861226  0.05807614    -0.12500
C1242       C  0.19269813  0.47835406  0.06443501     0.01500
H1243       H  0.27258997  0.52767906  0.01717516     0.14500
H1244       H  0.14116751  0.49202985  0.07039661     0.14500
C1245       C  0.17781575  0.44767319  0.08626692     0.36100
C1246       C  0.23721161  0.57332055  0.00266398     0.36000
N1247       N  0.16589746  0.42304297  0.10376284    -0.44200
N1248       N  0.25067511  0.60020383  0.98651265    -0.44200
C1249       C  0.07226482  0.67832120  0.08281990    -0.00600
C1250       C  0.06627547  0.68498582  0.11023386    -0.12500
C1251       C  0.04547085  0.70770137  0.11795247     0.01600
C1252       C  0.02916518  0.72323992  0.09797356    -0.00700
C1253       C  0.03860984  0.71968646  0.07065794    -0.12500
C1254       C  0.06005033  0.69774912  0.06297929     0.01500
H1255       H  0.07617022  0.67063129  0.12570284     0.14500
H1256       H  0.02673002  0.73183562  0.05498615     0.14500
C1257       C  0.06552949  0.69246983  0.03460414     0.36100
C1258       C  0.03866453  0.71183475  0.14627061     0.36000
N1259       N  0.06987569  0.68843598  0.01182035    -0.44200
N1260       N  0.03348137  0.71536830  0.16900066    -0.44200
C1261       C  0.00954061  0.50145789  0.03642579    -0.00600
C1262       C  0.99746195  0.45809763  0.03982129    -0.12500
C1263       C  0.96947895  0.42640013  0.02145846     0.01600
C1264       C  0.95323188  0.43806473  0.99897100    -0.00700
C1265       C  0.96393895  0.48106959  0.99631590    -0.12500
C1266       C  0.99117758  0.51246890  0.01482646     0.01500
H1267       H  0.01134020  0.44919331  0.05616817     0.14500
H1268       H  0.95058906  0.49024126  0.97979044     0.14500
C1269       C  0.99907895  0.55569574  0.01113778     0.36100
C1270       C  0.95958358  0.38260784  0.02573780     0.36000
N1271       N  0.00503484  0.59014920  0.00799525    -0.44200
N1272       N  0.95157842  0.34751044  0.02924238    -0.44200
C1273       C  0.16398947  0.65542505  0.16591792    -0.00600
C1274       C  0.15123091  0.68486982  0.17378378    -0.12500
C1275       C  0.17112134  0.71258175  0.19585202     0.01600
C1276       C  0.20430434  0.71066366  0.21011192    -0.00700
C1277       C  0.21268130  0.67748258  0.20409252    -0.12500
C1278       C  0.19315122  0.65022975  0.18222433     0.01500
H1279       H  0.12821425  0.68842287  0.16162170     0.14500
H1280       H  0.23656834  0.67426994  0.21560345     0.14500
C1281       C  0.20569779  0.61873637  0.17623212     0.36100
C1282       C  0.15886234  0.74423919  0.20209088     0.36000
N1283       N  0.21668986  0.59412792  0.17177594    -0.44200
N1284       N  0.14885639  0.76947335  0.20714367    -0.44200
C1285       C  0.86460920  0.87265596  0.37351786    -0.00600
C1286       C  0.90743199  0.90353054  0.36730234    -0.12500
C1287       C  0.94086576  0.89515364  0.37198104     0.01600
C1288       C  0.93120368  0.85370689  0.38050617    -0.00700
C1289       C  0.88773054  0.82051686  0.38191689    -0.12500
C1290       C  0.85438617  0.82993007  0.37903887     0.01500
H1291       H  0.91562283  0.93639049  0.36328961     0.14500
H1292       H  0.87991640  0.78845051  0.38807954     0.14500
C1293       C  0.81041407  0.79676620  0.38514209     0.36100
C1294       C  0.98459100  0.93131261  0.37100051     0.36000
N1295       N  0.77517590  0.77034525  0.39018726    -0.44200
N1296       N  0.01905842  0.96130152  0.37085941    -0.44200
C1297       C  0.61925995  0.79084328  0.32256046    -0.00600
C1298       C  0.60733596  0.78780279  0.34993614    -0.12500
C1299       C  0.63641619  0.81560358  0.36948064     0.01600
C1300       C  0.67905246  0.84703639  0.36186885    -0.00700
C1301       C  0.69004056  0.85129884  0.33410233    -0.12500
C1302       C  0.66063270  0.82379536  0.31456614     0.01500
H1303       H  0.57522331  0.76277042  0.35620993     0.14500
H1304       H  0.72220656  0.87567185  0.32751476     0.14500
C1305       C  0.67460657  0.82822417  0.28677990     0.36100
C1306       C  0.62170845  0.81006084  0.39713748     0.36000
N1307       N  0.68569187  0.83161046  0.26449148    -0.44200
N1308       N  0.60978039  0.80564477  0.41928373    -0.44200
C1309       C  0.81895319  0.96966555  0.50650897    -0.00600
C1310       C  0.84790332  0.96198733  0.52068863    -0.12500
C1311       C  0.86760918  0.98486077  0.54411339     0.01600
C1312       C  0.85932117  0.01753802  0.55328552    -0.00700
C1313       C  0.82665836  0.02179256  0.54053152    -0.12500
C1314       C  0.80587876  0.99744899  0.51744996     0.01500
H1315       H  0.85670739  0.93928088  0.51264164     0.14500
H1316       H  0.81892774  0.04566242  0.54772513     0.14500
C1317       C  0.77294011  0.00293095  0.50470799     0.36100
C1318       C  0.89866344  0.97602317  0.55660568     0.36000
N1319       N  0.74587797  0.00673019  0.49486708    -0.44200
N1320       N  0.92349581  0.96873498  0.56641943    -0.44200
C1321       C  0.51781504  0.01430866  0.49031543    -0.00600
C1322       C  0.52619986  0.01563262  0.51816702    -0.12500
C1323       C  0.49645862  0.98426164  0.53588398     0.01600
C1324       C  0.45686229  0.95032072  0.52591986    -0.00700
C1325       C  0.44785344  0.94983322  0.49818965    -0.12500
C1326       C  0.47767815  0.98119140  0.48045380     0.01500
H1327       H  0.55658260  0.04117496  0.52627428     0.14500
H1328       H  0.41752569  0.92427984  0.49004191     0.14500
C1329       C  0.46654722  0.97749510  0.45222646     0.36100
C1330       C  0.50777814  0.98808102  0.56407285     0.36000
N1331       N  0.45755901  0.97444958  0.42961716    -0.44200
N1332       N  0.51702292  0.99130559  0.58664144    -0.44200
C1333       C  0.80597582  0.33365896  0.47807684    -0.00600
C1334       C  0.77227635  0.31173299  0.49664698    -0.12500
C1335       C  0.74559155  0.26665295  0.49482766     0.01600
C1336       C  0.75086297  0.24407621  0.47289613    -0.00700
C1337       C  0.78954377  0.26497541  0.45809016    -0.12500
C1338       C  0.81847179  0.30910873  0.46191357     0.01500
H1339       H  0.76356473  0.32984744  0.51028590     0.14500
H1340       H  0.79589618  0.24760041  0.44247656     0.14500
C1341       C  0.85811209  0.32986283  0.44632419     0.36100
C1342       C  0.71157978  0.24503876  0.51454254     0.36000
N1343       N  0.89021927  0.34637198  0.43417375    -0.44200
N1344       N  0.68512595  0.22718488  0.53079216    -0.44200
C1345       C  0.68580683  0.04616874  0.43894282    -0.00600
C1346       C  0.66782979  0.01280076  0.41935309    -0.12500
C1347       C  0.69068964  0.99399063  0.40897152     0.01600
C1348       C  0.73312034  0.00855015  0.41760491    -0.00700
C1349       C  0.75211489  0.04263251  0.43642959    -0.12500
C1350       C  0.72894939  0.06153992  0.44712374     0.01500
H1351       H  0.63497212  0.00013165  0.41227623     0.14500
H1352       H  0.78414776  0.05257670  0.44410947     0.14500
C1353       C  0.74944273  0.09480653  0.46734644     0.36100
C1354       C  0.66828747  0.95679005  0.39144148     0.36000
N1355       N  0.76581468  0.12125319  0.48373158    -0.44200
N1356       N  0.65022511  0.92674365  0.37767081    -0.44200
C1357       C  0.50179514  0.14359838  0.32679103    -0.00600
C1358       C  0.49062696  0.10160591  0.33409572    -0.12500
C1359       C  0.51089887  0.09467998  0.35605864     0.01600
C1360       C  0.54225298  0.13031317  0.37128133    -0.00700
C1361       C  0.55047460  0.17172220  0.36512050    -0.12500
C1362       C  0.53077394  0.17865239  0.34320385     0.01500
H1363       H  0.46845484  0.07458793  0.32159035     0.14500
H1364       H  0.57376584  0.19925225  0.37689166     0.14500
C1365       C  0.54226096  0.22259325  0.33765876     0.36100
C1366       C  0.50170004  0.05130522  0.36101439     0.36000
N1367       N  0.55225079  0.25809721  0.33360124    -0.44200
N1368       N  0.49497923  0.01682181  0.36525575    -0.44200
C1369       C  0.34139526  0.78339674  0.03872894    -0.00600
C1370       C  0.31046001  0.79376231  0.04800087    -0.12500
C1371       C  0.26680867  0.76166533  0.05046698     0.01600
C1372       C  0.25376580  0.71935441  0.04233981    -0.00700
C1373       C  0.28263385  0.71159320  0.02743883    -0.12500
C1374       C  0.32657649  0.74348527  0.02548899     0.01500
H1375       H  0.32131931  0.82518861  0.05692466     0.14500
H1376       H  0.27213768  0.67918083  0.02029406     0.14500
C1377       C  0.35637592  0.73189064  0.01385619     0.36100
C1378       C  0.23651049  0.77195290  0.06284952     0.36000
N1379       N  0.38021681  0.72241762  0.00466807    -0.44200
N1380       N  0.21200413  0.78014834  0.07249558    -0.44200
C1381       C  0.41858278  0.70280068  0.06601783    -0.00600
C1382       C  0.44783665  0.68873384  0.05915779    -0.12500
C1383       C  0.43290779  0.64480989  0.05288770     0.01600
C1384       C  0.38798943  0.61461314  0.05160533    -0.00700
C1385       C  0.35921920  0.62990227  0.05567290    -0.12500
C1386       C  0.37356878  0.67223028  0.06410308     0.01500
H1387       H  0.48237506  0.71138346  0.06034896     0.14500
H1388       H  0.32458055  0.60697432  0.05546802     0.14500
C1389       C  0.34060512  0.68161757  0.07284667     0.36100
C1390       C  0.46397653  0.63074623  0.05010534     0.36000
N1391       N  0.31409222  0.68850964  0.08052239    -0.44200
N1392       N  0.48877826  0.61928145  0.04792857    -0.44200
C1393       C  0.48021754  0.82390609  0.17534500    -0.00600
C1394       C  0.52262074  0.83782288  0.18363706    -0.12500
C1395       C  0.53018179  0.81931084  0.20624944     0.01600
C1396       C  0.49465598  0.78598343  0.22059918    -0.00700
C1397       C  0.45258251  0.77686067  0.21429619    -0.12500
C1398       C  0.44520940  0.79563817  0.19194973     0.01500
H1399       H  0.54968576  0.86092597  0.17148486     0.14500
H1400       H  0.42492337  0.75282913  0.22568699     0.14500
C1401       C  0.40123939  0.78433699  0.18588443     0.36100
C1402       C  0.57451878  0.83402390  0.21355830     0.36000
N1403       N  0.36610589  0.77552213  0.18103294    -0.44200
N1404       N  0.61006434  0.84596073  0.21947511    -0.44200
C1405       C  0.35233977  0.87803833  0.19530812    -0.00600
C1406       C  0.32918480  0.87020565  0.17124936    -0.12500
C1407       C  0.35113916  0.88074843  0.14648997     0.01600
C1408       C  0.39643853  0.89907516  0.14594502    -0.00700
C1409       C  0.41971922  0.91477471  0.17003864    -0.12500
C1410       C  0.39786324  0.90401173  0.19483187     0.01500
H1411       H  0.29404544  0.85145736  0.17157689     0.14500
H1412       H  0.45473594  0.92963071  0.16976825     0.14500
C1413       C  0.42263475  0.91674287  0.21948330     0.36100
C1414       C  0.32648165  0.86804874  0.12186646     0.36000
N1415       N  0.44230784  0.92713210  0.23929981    -0.44200
N1416       N  0.30663608  0.85832625  0.10213681    -0.44200
C1417       C  0.04919039  0.13371266  0.14437993    -0.00600
C1418       C  0.02787676  0.15091824  0.13001503    -0.12500
C1419       C  0.98348640  0.13465567  0.13403297     0.01600
C1420       C  0.95922206  0.09725867  0.14994323    -0.00700
C1421       C  0.98154555  0.08650565  0.16838467    -0.12500
C1422       C  0.02676970  0.10541608  0.16616108     0.01500
H1423       H  0.04507174  0.17483919  0.11447466     0.14500
H1424       H  0.96350964  0.05952011  0.18193817     0.14500
C1425       C  0.04834045  0.09197564  0.18479258     0.36100
C1426       C  0.96197739  0.15219763  0.11853369     0.36000
N1427       N  0.06587963  0.08190966  0.20004001    -0.44200
N1428       N  0.94457919  0.16639315  0.10644454    -0.44200
C1429       C  0.86853359  0.91241998  0.14223638    -0.00600
C1430       C  0.83535161  0.86898790  0.14209128    -0.12500
C1431       C  0.84519988  0.83614199  0.14544947     0.01600
C1432       C  0.88844631  0.84682883  0.15004070    -0.00700
C1433       C  0.91971418  0.88990499  0.15511623    -0.12500
C1434       C  0.91071495  0.92279390  0.15010411     0.01500
H1435       H  0.80278339  0.86062415  0.13646066     0.14500
H1436       H  0.95310077  0.89843300  0.15836944     0.14500
C1437       C  0.94670945  0.96660143  0.15032877     0.36100
C1438       C  0.81187339  0.79198245  0.14040077     0.36000
N1439       N  0.97635655  0.00124446  0.15002867    -0.44200
N1440       N  0.78534732  0.75658744  0.13615028    -0.44200
C1441       C  0.69474728  0.92800392  0.10520638    -0.00600
C1442       C  0.67926656  0.91197262  0.07909053    -0.12500
C1443       C  0.63534531  0.89418676  0.07231774     0.01600
C1444       C  0.60566252  0.89148597  0.09211141    -0.00700
C1445       C  0.62049398  0.90281030  0.11896778    -0.12500
C1446       C  0.66441712  0.92097045  0.12560584     0.01500
H1447       H  0.70227129  0.91604184  0.06347709     0.14500
H1448       H  0.59804336  0.89992595  0.13471423     0.14500
C1449       C  0.67790407  0.93577429  0.15287861     0.36100
C1450       C  0.62259670  0.88273439  0.04456377     0.36000
N1451       N  0.68879992  0.94768868  0.17472517    -0.44200
N1452       N  0.61235971  0.87370016  0.02229167    -0.44200
C1453       C  0.98256082  0.15774533  0.99848116    -0.00600
C1454       C  0.94263581  0.15637294  0.99996315    -0.12500
C1455       C  0.91458374  0.13662796  0.02199672     0.01600
C1456       C  0.92777228  0.12012348  0.04324876    -0.00700
C1457       C  0.97013844  0.12758404  0.04344399    -0.12500
C1458       C  0.99679035  0.14439154  0.02093123     0.01500
H1459       H  0.93149906  0.16647215  0.98284238     0.14500
H1460       H  0.98044422  0.11512708  0.05991450     0.14500
C1461       C  0.03593552  0.14217468  0.02033474     0.36100
C1462       C  0.87084845  0.12864421  0.02078967     0.36000
N1463       N  0.06616142  0.13842382  0.02006719    -0.44200
N1464       N  0.83555086  0.12163308  0.02005832    -0.44200
C1465       C  0.82483684  0.95073068  0.02272930    -0.00600
C1466       C  0.86091795  0.94822064  0.01421670    -0.12500
C1467       C  0.85955981  0.92522529  0.99114693     0.01600
C1468       C  0.82018452  0.90125792  0.97677219    -0.00700
C1469       C  0.78496424  0.90646065  0.98410645    -0.12500
C1470       C  0.78758230  0.93217559  0.00637481     0.01500
H1471       H  0.89083517  0.96489259  0.02560926     0.14500
H1472       H  0.75519463  0.89019734  0.97260685     0.14500
C1473       C  0.75206070  0.93930031  0.01166405     0.36100
C1474       C  0.89961300  0.92788135  0.98276127     0.36000
N1475       N  0.72388880  0.94582385  0.01510946    -0.44200
N1476       N  0.93185923  0.93053329  0.97592001    -0.44200
C1477       C  0.29508602  0.50784322  0.31891603    -0.00600
C1478       C  0.31769331  0.54449644  0.33524049    -0.12500
C1479       C  0.36256880  0.57209671  0.33183610     0.01600
C1480       C  0.38436958  0.56572002  0.30998864    -0.00700
C1481       C  0.36334119  0.52574168  0.29672476    -0.12500
C1482       C  0.31952680  0.49583964  0.30231889     0.01500
H1483       H  0.29990353  0.55349750  0.34900620     0.14500
H1484       H  0.38064125  0.51842461  0.28154628     0.14500
C1485       C  0.29942699  0.45366550  0.28997961     0.36100
C1486       C  0.38545026  0.60703741  0.35059241     0.36000
N1487       N  0.28363566  0.41935024  0.28077155    -0.44200
N1488       N  0.40491532  0.63393783  0.36619843    -0.44200
C1489       C  0.20000228  0.58899646  0.29595247    -0.00600
C1490       C  0.22747879  0.60950889  0.31816295    -0.12500
C1491       C  0.24846627  0.65466820  0.32167099     0.01600
C1492       C  0.24076384  0.67985761  0.30339516    -0.00700
C1493       C  0.21025100  0.65875058  0.28277123    -0.12500
C1494       C  0.19053137  0.61407169  0.27864927     0.01500
H1495       H  0.23550943  0.59078155  0.33148177     0.14500
H1496       H  0.20442030  0.67783831  0.26840522     0.14500
C1497       C  0.16242456  0.59507613  0.25568120     0.36100
C1498       C  0.28036488  0.67469846  0.34266558     0.36000
N1499       N  0.14006499  0.57977832  0.23721219    -0.44200
N1500       N  0.30587207  0.69056926  0.35957304    -0.44200
C1501       C  0.31222911  0.43721119  0.16815270    -0.00600
C1502       C  0.33410763  0.46884337  0.18788571    -0.12500
C1503       C  0.31269489  0.46962149  0.21140417     0.01600
C1504       C  0.26970268  0.43561970  0.21655823    -0.00700
C1505       C  0.25139994  0.39998938  0.19888596    -0.12500
C1506       C  0.27122547  0.40163362  0.17419934     0.01500
H1507       H  0.36540428  0.49676032  0.18298023     0.14500
H1508       H  0.21880580  0.37332234  0.20244052     0.14500
C1509       C  0.24617776  0.36928002  0.15429753     0.36100
C1510       C  0.33326135  0.50921301  0.22681773     0.36000
N1511       N  0.22450627  0.34310670  0.13882706    -0.44200
N1512       N  0.34978230  0.54194581  0.23810835    -0.44200
C1513       C  0.13971423  0.50172667  0.13541390    -0.00600
C1514       C  0.18100282  0.50869113  0.14152738    -0.12500
C1515       C  0.18804353  0.49265382  0.16527109     0.01600
C1516       C  0.15301928  0.46809260  0.18306906    -0.00700
C1517       C  0.11074262  0.45437622  0.17450092    -0.12500
C1518       C  0.10379568  0.47071278  0.15060630     0.01500
H1519       H  0.20879695  0.53034366  0.12926395     0.14500
H1520       H  0.08343587  0.43348612  0.18732886     0.14500
C1521       C  0.05979640  0.45617762  0.14264899     0.36100
C1522       C  0.23210966  0.50454242  0.17162541     0.36000
N1523       N  0.02455021  0.44422679  0.13602436    -0.44200
N1524       N  0.26756486  0.51465268  0.17657872    -0.44200
C1525       C  0.68400964  0.20749960  0.20112559    -0.00600
C1526       C  0.66440725  0.22545363  0.18584395    -0.12500
C1527       C  0.61944018  0.20847270  0.18735455     0.01600
C1528       C  0.59402390  0.17518691  0.20583047    -0.00700
C1529       C  0.61273983  0.15363536  0.21821886    -0.12500
C1530       C  0.65718478  0.16858876  0.21502709     0.01500
H1531       H  0.68452063  0.25500827  0.17472795     0.14500
H1532       H  0.59322523  0.12663471  0.23147450     0.14500
C1533       C  0.67555807  0.14564351  0.22790817     0.36100
C1534       C  0.60072752  0.22779009  0.17119420     0.36000
N1535       N  0.69031356  0.12698041  0.23784031    -0.44200
N1536       N  0.58554406  0.24249486  0.15758632    -0.44200
C1537       C  0.81706237  0.16980385  0.18921695    -0.00600
C1538       C  0.82705322  0.17916854  0.16153953    -0.12500
C1539       C  0.82345823  0.14750709  0.14302146     0.01600
C1540       C  0.80915115  0.10511851  0.15189735    -0.00700
C1541       C  0.79768108  0.09545260  0.17926802    -0.12500
C1542       C  0.80167712  0.12685067  0.19779623     0.01500
H1543       H  0.83865788  0.21164862  0.15432934     0.14500
H1544       H  0.78652946  0.06305607  0.18654836     0.14500
C1545       C  0.79075793  0.11368456  0.22559920     0.36100
C1546       C  0.83703606  0.15998635  0.11545325     0.36000
N1547       N  0.78217381  0.10304442  0.24786325    -0.44200
N1548       N  0.84800744  0.16979990  0.09333144    -0.44200
C1549       C  0.73904422  0.42649027  0.22072671    -0.00600
C1550       C  0.76878322  0.43564642  0.24179176    -0.12500
C1551       C  0.78952824  0.41160240  0.24539011     0.01600
C1552       C  0.78159039  0.37791990  0.22728843    -0.00700
C1553       C  0.75433352  0.37091220  0.20501901    -0.12500
C1554       C  0.73260203  0.39424430  0.20193037     0.01500
H1555       H  0.77394903  0.46020064  0.25647888     0.14500
H1556       H  0.74722602  0.34475005  0.19111333     0.14500
C1557       C  0.70095666  0.38194952  0.18080289     0.36100
C1558       C  0.81796152  0.42139369  0.26819750     0.36000
N1559       N  0.67536328  0.37198465  0.16396683    -0.44200
N1560       N  0.84081828  0.42920720  0.28643059    -0.44200
C1561       C  0.94708201  0.34631282  0.24951157    -0.00600
C1562       C  0.95835280  0.33382794  0.27372156    -0.12500
C1563       C  0.99978035  0.35770820  0.28510770     0.01600
C1564       C  0.03229848  0.39490977  0.27219387    -0.00700
C1565       C  0.02100644  0.40898972  0.24868817    -0.12500
C1566       C  0.97864797  0.38560484  0.23765057     0.01500
H1567       H  0.93502177  0.30424075  0.28365443     0.14500
H1568       H  0.04598398  0.43693400  0.23804389     0.14500
C1569       C  0.96939793  0.40098780  0.21326316     0.36100
C1570       C  0.00907883  0.34198050  0.30941503     0.36000
N1571       N  0.96187763  0.41340614  0.19374611    -0.44200
N1572       N  0.01667520  0.32964390  0.32894246    -0.44200
C1573       C  0.72034601  0.15604580  0.30584070    -0.00600
C1574       C  0.74058733  0.14298928  0.32486271    -0.12500
C1575       C  0.72025403  0.12465759  0.34951426     0.01600
C1576       C  0.67774679  0.11567417  0.35429827    -0.00700
C1577       C  0.65501644  0.12161970  0.33358469    -0.12500
C1578       C  0.67619028  0.14330131  0.30999812     0.01500
H1579       H  0.77425811  0.15211345  0.32216558     0.14500
H1580       H  0.62239428  0.11525967  0.33753691     0.14500
C1581       C  0.65315075  0.15718735  0.29288681     0.36100
C1582       C  0.74505732  0.11987449  0.37062111     0.36000
N1583       N  0.63432517  0.16900843  0.28007994    -0.44200
N1584       N  0.76518672  0.11643339  0.38754338    -0.44200
C1585       C  0.87016217  0.36813872  0.37446518    -0.00600
C1586       C  0.83512860  0.32575789  0.37528271    -0.12500
C1587       C  0.82541364  0.29870127  0.35312354     0.01600
C1588       C  0.85218182  0.31352601  0.33007414    -0.00700
C1589       C  0.89114845  0.35332744  0.33087764    -0.12500
C1590       C  0.90022223  0.38110778  0.35301668     0.01500
H1591       H  0.81229925  0.31555834  0.39200929     0.14500
H1592       H  0.91192704  0.36457027  0.31317717     0.14500
C1593       C  0.93736818  0.42418090  0.35179522     0.36100
C1594       C  0.78510798  0.25798868  0.35356416     0.36000
N1595       N  0.96720310  0.45870881  0.35084345    -0.44200
N1596       N  0.75227816  0.22595820  0.35442279    -0.44200
C1597       C  0.63004515  0.40289113  0.48460565    -0.00600
C1598       C  0.64118812  0.37082862  0.48496253    -0.12500
C1599       C  0.68266247  0.38019278  0.47719003     0.01600
C1600       C  0.71506557  0.42325296  0.47138432    -0.00700
C1601       C  0.70602610  0.45641760  0.47634933    -0.12500
C1602       C  0.66360676  0.44642424  0.48270416     0.01500
H1603       H  0.61579154  0.33739651  0.48646451     0.14500
H1604       H  0.73094869  0.48972549  0.47292056     0.14500
C1605       C  0.65382148  0.48072374  0.48384202     0.36100
C1606       C  0.68953492  0.34428996  0.47304671     0.36000
N1607       N  0.64583912  0.50812785  0.48479280    -0.44200
N1608       N  0.69418040  0.31509211  0.46928874    -0.44200
C1609       C  0.53372066  0.24722168  0.45567286    -0.00600
C1610       C  0.55288620  0.24828586  0.48058981    -0.12500
C1611       C  0.57133006  0.22229228  0.48520988     0.01600
C1612       C  0.57099755  0.19502806  0.46454590    -0.00700
C1613       C  0.54700059  0.19037728  0.44108298    -0.12500
C1614       C  0.52832286  0.21591325  0.43659451     0.01500
H1615       H  0.55517827  0.27084726  0.49601340     0.14500
H1616       H  0.54483932  0.16825435  0.42546014     0.14500
C1617       C  0.50438423  0.21021306  0.41212304     0.36100
C1618       C  0.59065793  0.22474511  0.51100108     0.36000
N1619       N  0.48439753  0.20543500  0.39283666    -0.44200
N1620       N  0.60471938  0.22650815  0.53221051    -0.44200
C1621       C  0.59104559  0.48048144  0.37969773    -0.00600
C1622       C  0.56555462  0.47851772  0.35784082    -0.12500
C1623       C  0.58411461  0.49190815  0.33230889     0.01600
C1624       C  0.62927635  0.51064235  0.32905878    -0.00700
C1625       C  0.65543740  0.51999232  0.35198157    -0.12500
C1626       C  0.63649338  0.50392647  0.37723030     0.01500
H1627       H  0.53048774  0.46020068  0.35969325     0.14500
H1628       H  0.69023105  0.53442971  0.34961884     0.14500
C1629       C  0.66381857  0.50759373  0.39957712     0.36100
C1630       C  0.55547620  0.48047001  0.30952443     0.36000
N1631       N  0.68577066  0.51057134  0.41746720    -0.44200
N1632       N  0.53158577  0.47007552  0.29167090    -0.44200
C1633       C  0.47325229  0.26662614  0.30112042    -0.00600
C1634       C  0.51328425  0.30550716  0.30338065    -0.12500
C1635       C  0.52355065  0.33102657  0.32654329     0.01600
C1636       C  0.49353040  0.31776061  0.34780537    -0.00700
C1637       C  0.45224682  0.28164589  0.34475755    -0.12500
C1638       C  0.44143631  0.25631928  0.32146007     0.01500
H1639       H  0.53809621  0.31445246  0.28802234     0.14500
H1640       H  0.42936678  0.27165308  0.36130431     0.14500
C1641       C  0.39853973  0.21866345  0.32014247     0.36100
C1642       C  0.56605825  0.36897932  0.32894515     0.36000
N1643       N  0.36409362  0.18857971  0.31929728    -0.44200
N1644       N  0.60008460  0.39931311  0.33117288    -0.44200
C1645       C  0.92714262  0.03443304  0.39497345    -0.00600
C1646       C  0.94358885  0.02926664  0.37033954    -0.12500
C1647       C  0.98745785  0.05605558  0.36345067     0.01600
C1648       C  0.01531809  0.08926507  0.38112818    -0.00700
C1649       C  0.99707940  0.09787280  0.40389519    -0.12500
C1650       C  0.95353170  0.07046573  0.41115477     0.01500
H1651       H  0.92258401  0.00289452  0.35706206     0.14500
H1652       H  0.01777824  0.12405445  0.41726091     0.14500
C1653       C  0.93717159  0.07864208  0.43582493     0.36100
C1654       C  0.00296293  0.04792174  0.33854801     0.36000
N1655       N  0.92394983  0.08525940  0.45553173    -0.44200
N1656       N  0.01377723  0.04096197  0.31803249    -0.44200
C1657       C  0.14861818  0.27095874  0.35773950    -0.00600
C1658       C  0.14090272  0.30238644  0.36914103    -0.12500
C1659       C  0.13917660  0.33380977  0.35307884     0.01600
C1660       C  0.14615673  0.33510797  0.32469404    -0.00700
C1661       C  0.15258980  0.30293306  0.31331301    -0.12500
C1662       C  0.15320746  0.27099474  0.32917167     0.01500
H1663       H  0.13643614  0.30266831  0.39078472     0.14500
H1664       H  0.15694650  0.30240829  0.29166587     0.14500
C1665       C  0.15744034  0.23805540  0.31502541     0.36100
C1666       C  0.13025985  0.36420286  0.36656754     0.36000
N1667       N  0.16052785  0.21161085  0.30353034    -0.44200
N1668       N  0.12277918  0.38829036  0.37744746    -0.44200
C1669       C  0.11435362  0.94890036  0.36788923    -0.00600
C1670       C  0.10110521  0.96869458  0.34902852    -0.12500
C1671       C  0.11836873  0.01374874  0.35000943     0.01600
C1672       C  0.14672302  0.03833052  0.37120233    -0.00700
C1673       C  0.16691269  0.01987951  0.38547466    -0.12500
C1674       C  0.15246611  0.97576109  0.38272628     0.01500
H1675       H  0.07410656  0.94893609  0.33580982     0.14500
H1676       H  0.19162391  0.03904040  0.40021526     0.14500
C1677       C  0.17296691  0.95736869  0.39841990     0.36100
C1678       C  0.10551192  0.03360758  0.32983401     0.36000
N1679       N  0.18941159  0.94256000  0.41088540    -0.44200
N1680       N  0.09694735  0.05016978  0.31304033    -0.44200
C1681       C  0.28047891  0.22778809  0.40727000    -0.00600
C1682       C  0.29116782  0.22899274  0.43475136    -0.12500
C1683       C  0.33442680  0.25092825  0.44354882     0.01600
C1684       C  0.36805819  0.27330613  0.42468191    -0.00700
C1685       C  0.35707728  0.26944526  0.39697569    -0.12500
C1686       C  0.31399223  0.24663608  0.38819787     0.01500
H1687       H  0.26543720  0.21431262  0.44961219     0.14500
H1688       H  0.38213805  0.28647156  0.38201984     0.14500
C1689       C  0.30494874  0.24620004  0.35982915     0.36100
C1690       C  0.34290586  0.25243827  0.47206425     0.36000
N1691       N  0.29765581  0.24579403  0.33709064    -0.44200
N1692       N  0.34954759  0.25344646  0.49494799    -0.44200
C1693       C  0.20747750  0.11634134  0.53918324    -0.00600
C1694       C  0.18131913  0.13510595  0.54003897    -0.12500
C1695       C  0.17586007  0.15444254  0.51708830     0.01600
C1696       C  0.19661033  0.15492129  0.49266400    -0.00700
C1697       C  0.22606640  0.14018038  0.49252894    -0.12500
C1698       C  0.23188442  0.12115479  0.51542952     0.01500
H1699       H  0.16265978  0.13196859  0.55810065     0.14500
H1700       H  0.24173574  0.14008417  0.47372075     0.14500
C1701       C  0.25900740  0.10228698  0.51258349     0.36100
C1702       C  0.14512564  0.16912399  0.51847064     0.36000
N1703       N  0.28048794  0.08693531  0.51008224    -0.44200
N1704       N  0.12048648  0.18085275  0.52005407    -0.44200
C1705       C  0.00285925  0.14019880  0.52260281    -0.00600
C1706       C  0.99913094  0.10307688  0.51058629    -0.12500
C1707       C  0.01973810  0.10511980  0.48638928     0.01600
C1708       C  0.04609240  0.14559439  0.47385403    -0.00700
C1709       C  0.04486422  0.18177741  0.48389210    -0.12500
C1710       C  0.02257863  0.17906869  0.50794719     0.01500
H1711       H  0.98096277  0.07212514  0.52067481     0.14500
H1712       H  0.06310379  0.21266125  0.47382455     0.14500
C1713       C  0.02096566  0.21632656  0.51718975     0.36100
C1714       C  0.01439980  0.06507824  0.47590368     0.36000
N1715       N  0.01859472  0.24584396  0.52413916    -0.44200
N1716       N  0.01013860  0.03296693  0.46765355    -0.44200
C1717       C  0.62438595  0.18394207  0.97435218    -0.00600
C1718       C  0.64271790  0.16829760  0.95548551    -0.12500
C1719       C  0.68778415  0.18929864  0.95152722     0.01600
C1720       C  0.71508451  0.22630559  0.96688560    -0.00700
C1721       C  0.69686252  0.23791977  0.98827858    -0.12500
C1722       C  0.65184871  0.21754784  0.99180238     0.01500
H1723       H  0.62164118  0.14205156  0.94212128     0.14500
H1724       H  0.71755775  0.26568351  0.00069048     0.14500
C1725       C  0.63459628  0.23387226  0.01199114     0.36100
C1726       C  0.70497184  0.17394954  0.93061282     0.36000
N1727       N  0.62111540  0.24702903  0.02838577    -0.44200
N1728       N  0.71870179  0.16174717  0.91376541    -0.44200
C1729       C  0.49836831  0.95503549  0.02775607    -0.00600
C1730       C  0.51473528  0.99821813  0.03568499    -0.12500
C1731       C  0.51336099  0.02836558  0.01834999     0.01600
C1732       C  0.49558150  0.01590541  0.99217994    -0.00700
C1733       C  0.48082185  0.97346832  0.98373404    -0.12500
C1734       C  0.48145213  0.94302288  0.00114249     0.01500
H1735       H  0.52818871  0.00849771  0.05570854     0.14500
H1736       H  0.46696562  0.96351109  0.96376194     0.14500
C1737       C  0.46224274  0.89925702  0.99127388     0.36100
C1738       C  0.53141401  0.07219436  0.02784979     0.36000
N1739       N  0.44654075  0.86419025  0.98330097    -0.44200
N1740       N  0.54625225  0.10720422  0.03578036    -0.44200
C1741       C  0.51260264  0.25196067  0.97626138    -0.00600
C1742       C  0.54298921  0.26970269  0.99732675    -0.12500
C1743       C  0.56490187  0.31420099  0.00284634     0.01600
C1744       C  0.55521272  0.34142355  0.98799377    -0.00700
C1745       C  0.51955860  0.32243340  0.97040375    -0.12500
C1746       C  0.49911879  0.27833560  0.96381842     0.01500
H1747       H  0.55295984  0.24965474  0.00756765     0.14500
H1748       H  0.51140903  0.34304626  0.95907779     0.14500
C1749       C  0.46636895  0.26162684  0.94313797     0.36100
C1750       C  0.60017046  0.33197964  0.02185545     0.36000
N1751       N  0.44011648  0.24842111  0.92654773    -0.44200
N1752       N  0.62832411  0.34625830  0.03719431    -0.44200
C1753       C  0.59863269  0.13104326  0.87703385    -0.00600
C1754       C  0.58509579  0.09785691  0.85780081    -0.12500
C1755       C  0.61067537  0.10274044  0.83517264     0.01600
C1756       C  0.65236015  0.13930807  0.83299947    -0.00700
C1757       C  0.66705306  0.17143065  0.85289464    -0.12500
C1758       C  0.63996596  0.16854477  0.87421601     0.01500
H1759       H  0.55254954  0.07008086  0.85891773     0.14500
H1760       H  0.69832440  0.20065341  0.85040963     0.14500
C1761       C  0.65411564  0.20602262  0.89129035     0.36100
C1762       C  0.59101775  0.07317914  0.81290660     0.36000
N1763       N  0.66548003  0.23650591  0.90453304    -0.44200
N1764       N  0.57404374  0.05007495  0.79495328    -0.44200
C1765       C  0.44730814  0.12618644  0.85731167    -0.00600
C1766       C  0.46333862  0.11747304  0.83370214    -0.12500
C1767       C  0.45709656  0.13122666  0.80869765     0.01600
C1768       C  0.43370266  0.15295674  0.80733297    -0.00700
C1769       C  0.41213663  0.15548527  0.83039246    -0.12500
C1770       C  0.41935072  0.14283209  0.85549648     0.01500
H1771       H  0.48444549  0.10407922  0.83508855     0.14500
H1772       H  0.39420156  0.17234836  0.82942315     0.14500
C1773       C  0.40031012  0.14991638  0.87930895     0.36100
C1774       C  0.47820355  0.12635526  0.78514518     0.36000
N1775       N  0.38487241  0.15530386  0.89841639    -0.44200
N1776       N  0.49502500  0.12212621  0.76632900    -0.44200
C1777       C  0.93529524  0.81663447  0.86931321    -0.00600
C1778       C  0.96067886  0.80540647  0.88495216    -0.12500
C1779       C  0.00508394  0.82336003  0.87941731     0.01600
C1780       C  0.02545932  0.85621058  0.85995207    -0.00700
C1781       C  0.99911729  0.86080542  0.84118159    -0.12500
C1782       C  0.95408769  0.84057576  0.84532925     0.01500
H1783       H  0.94648402  0.78447469  0.90227520     0.14500
H1784       H  0.01415100  0.88370734  0.82486133     0.14500
C1785       C  0.92897313  0.84782938  0.82566111     0.36100
C1786       C  0.02996325  0.80975349  0.89492982     0.36000
N1787       N  0.90882553  0.85308909  0.80959792    -0.44200
N1788       N  0.04969162  0.79802150  0.90688578    -0.44200
C1789       C  0.11763697  0.04524344  0.86878344    -0.00600
C1790       C  0.14578296  0.08893921  0.87490999    -0.12500
C1791       C  0.13209718  0.11906111  0.87192738     0.01600
C1792       C  0.08950365  0.10516727  0.86344043    -0.00700
C1793       C  0.06417165  0.06320103  0.85346438    -0.12500
C1794       C  0.07749849  0.03299966  0.85646420     0.01500
H1795       H  0.17688401  0.09883157  0.88404658     0.14500
H1796       H  0.03116724  0.05221029  0.84722738     0.14500
C1797       C  0.04630706  0.98869462  0.85031978     0.36100
C1798       C  0.15986170  0.16294502  0.88094792     0.36000
N1799       N  0.01977681  0.95366930  0.84535990    -0.44200
N1800       N  0.18177938  0.19818542  0.88817913    -0.44200
C1801       C  0.36446936  0.06117170  0.93415269    -0.00600
C1802       C  0.35533369  0.04474516  0.90749614    -0.12500
C1803       C  0.31418820  0.02835468  0.89598549     0.01600
C1804       C  0.28024833  0.02674260  0.91127775    -0.00700
C1805       C  0.28986058  0.04609931  0.93709199    -0.12500
C1806       C  0.33175501  0.06420703  0.94830766     0.01500
H1807       H  0.38019470  0.04352622  0.89561739     0.14500
H1808       H  0.26389813  0.04494727  0.94911221     0.14500
C1809       C  0.33954287  0.08346093  0.97478615     0.36100
C1810       C  0.30673428  0.01072866  0.86900685     0.36000
N1811       N  0.34605220  0.09933571  0.99592139    -0.44200
N1812       N  0.30073621  0.99685908  0.84731388    -0.44200
C1813       C  0.15280490  0.99725555  0.99164414    -0.00600
C1814       C  0.19469605  0.02422408  0.00172307    -0.12500
C1815       C  0.20123391  0.04855441  0.02529475     0.01600
C1816       C  0.16515730  0.04549279  0.03930762    -0.00700
C1817       C  0.12331185  0.01588093  0.03025189    -0.12500
C1818       C  0.11678816  0.99202701  0.00677402     0.01500
H1819       H  0.22246031  0.02772547  0.99059388     0.14500
H1820       H  0.09522781  0.01228996  0.04109638     0.14500
C1821       C  0.07247629  0.96261356  0.99885314     0.36100
C1822       C  0.24524197  0.07798913  0.03358566     0.36000
N1823       N  0.03686794  0.93937137  0.99268129    -0.44200
N1824       N  0.28048759  0.10160687  0.04028708    -0.44200
C1825       C  0.03966320  0.84027743  0.96830167    -0.00600
C1826       C  0.00092881  0.84080549  0.97213402    -0.12500
C1827       C  0.97668872  0.82484304  0.99580400     0.01600
C1828       C  0.99031540  0.80667251  0.01570263    -0.00700
C1829       C  0.02598266  0.80162900  0.01078656    -0.12500
C1830       C  0.05073001  0.81809350  0.98725024     0.01500
H1831       H  0.99128273  0.85689535  0.95770896     0.14500
H1832       H  0.03591482  0.78695124  0.02599806     0.14500
C1833       C  0.08809959  0.81319439  0.98380970     0.36100
C1834       C  0.93928303  0.82956194  0.99987722     0.36000
N1835       N  0.11802382  0.80919804  0.98117970    -0.44200
N1836       N  0.90945719  0.83354428  0.00314656    -0.44200
C1837       C  0.30390373  0.74541448  0.81250745    -0.00600
C1838       C  0.33272714  0.78373441  0.79863174    -0.12500
C1839       C  0.37593791  0.79522092  0.79387324     0.01600
C1840       C  0.39102076  0.76855351  0.80348092    -0.00700
C1841       C  0.36498505  0.73572675  0.82195521    -0.12500
C1842       C  0.32171451  0.72452213  0.82686472     0.01500
H1843       H  0.31988061  0.80132590  0.78835288     0.14500
H1844       H  0.37798927  0.71826966  0.83208271     0.14500
C1845       C  0.29599996  0.69113557  0.84607670     0.36100
C1846       C  0.40297828  0.83204284  0.77707593     0.36000
N1847       N  0.27575201  0.66523321  0.86209471    -0.44200
N1848       N  0.42496617  0.86146709  0.76363263    -0.44200
C1849       C  0.15944172  0.78078494  0.82787592    -0.00600
C1850       C  0.15719757  0.77401991  0.85608608    -0.12500
C1851       C  0.15853188  0.80468028  0.87456257     0.01600
C1852       C  0.16302391  0.84365193  0.86502790    -0.00700
C1853       C  0.16462579  0.84997251  0.83690697    -0.12500
C1854       C  0.16272950  0.81937896  0.81850851     0.01500
H1855       H  0.15428413  0.74453247  0.86385602     0.14500
H1856       H  0.16719531  0.87924664  0.82898874     0.14500
C1857       C  0.16501197  0.82931739  0.79015408     0.36100
C1858       C  0.15605867  0.79558611  0.90304205     0.36000
N1859       N  0.16676436  0.83744851  0.76746200    -0.44200
N1860       N  0.15397200  0.78813961  0.92586283    -0.44200
C1861       C  0.18895104  0.57130673  0.79830780    -0.00600
C1862       C  0.22425127  0.57949417  0.81460906    -0.12500
C1863       C  0.23472062  0.54740715  0.81939100     0.01600
C1864       C  0.21110716  0.50731399  0.80624032    -0.00700
C1865       C  0.17148387  0.49698821  0.79398907    -0.12500
C1866       C  0.16064827  0.52885022  0.78951324     0.01500
H1867       H  0.24541284  0.61181265  0.82197646     0.14500
H1868       H  0.15242878  0.46583304  0.78420772     0.14500
C1869       C  0.12370531  0.51848127  0.77285840     0.36100
C1870       C  0.27264074  0.55798695  0.83510439     0.36000
N1871       N  0.09425498  0.50986247  0.75925629    -0.44200
N1872       N  0.30287724  0.56638945  0.84786720    -0.44200
C1873       C  0.24919314  0.79019905  0.70472413    -0.00600
C1874       C  0.22651895  0.77478278  0.68048454    -0.12500
C1875       C  0.24790839  0.78915013  0.65586643     0.01600
C1876       C  0.29231197  0.82072982  0.65550383    -0.00700
C1877       C  0.31324447  0.84073925  0.67967338    -0.12500
C1878       C  0.29195847  0.82519190  0.70442681     0.01500
H1879       H  0.19337940  0.74793714  0.68077042     0.14500
H1880       H  0.34734265  0.86530525  0.67939665     0.14500
C1881       C  0.31527321  0.84352259  0.72911698     0.36100
C1882       C  0.22476351  0.76797101  0.63149335     0.36000
N1883       N  0.33400553  0.85887315  0.74884080    -0.44200
N1884       N  0.20631856  0.75092138  0.61197905    -0.44200
C1885       C  0.12676381  0.58073702  0.64051943    -0.00600
C1886       C  0.16731562  0.61813091  0.64434233    -0.12500
C1887       C  0.17595205  0.64365769  0.66731009     0.01600
C1888       C  0.14299912  0.63346173  0.68654189    -0.00700
C1889       C  0.10092357  0.59922287  0.68137619    -0.12500
C1890       C  0.09247535  0.57273257  0.65846873     0.01500
H1891       H  0.19374197  0.62553484  0.63044374     0.14500
H1892       H  0.07547843  0.59135434  0.69613483     0.14500
C1893       C  0.04952061  0.53579145  0.65524593     0.36100
C1894       C  0.22020252  0.67755325  0.67173581     0.36000
N1895       N  0.01508898  0.50613327  0.65270857    -0.44200
N1896       N  0.25604290  0.70403174  0.67489347    -0.44200
C1897       C  0.68615736  0.43637453  0.70601714    -0.00600
C1898       C  0.66141653  0.39997136  0.68988075    -0.12500
C1899       C  0.61689966  0.37300164  0.69477373     0.01600
C1900       C  0.59782299  0.37966874  0.71796479    -0.00700
C1901       C  0.62066592  0.41932805  0.73143068    -0.12500
C1902       C  0.66404967  0.44866201  0.72446214     0.01500
H1903       H  0.67709513  0.39129160  0.67443669     0.14500
H1904       H  0.60527212  0.42676528  0.74781897     0.14500
C1905       C  0.68552260  0.49111577  0.73639670     0.36100
C1906       C  0.59164398  0.33905460  0.67569490     0.36000
N1907       N  0.70208195  0.52568901  0.74525874    -0.44200
N1908       N  0.57176278  0.31255804  0.65988356    -0.44200
C1909       C  0.78276706  0.28679804  0.70495735    -0.00600
C1910       C  0.76406007  0.30455742  0.68859321    -0.12500
C1911       C  0.77744593  0.34872533  0.69077530     0.01600
C1912       C  0.80831387  0.37478454  0.71054638    -0.00700
C1913       C  0.83214452  0.35868809  0.72302562    -0.12500
C1914       C  0.82133042  0.31573368  0.71890096     0.01500
H1915       H  0.73543436  0.28330282  0.67694892     0.14500
H1916       H  0.85772195  0.37893695  0.73701942     0.14500
C1917       C  0.84637173  0.30018600  0.73244023     0.36100
C1918       C  0.75576599  0.36511600  0.67455408     0.36000
N1919       N  0.86645354  0.28760829  0.74310821    -0.44200
N1920       N  0.73888804  0.37823300  0.66101651    -0.44200
C1921       C  0.03142018  0.61722072  0.77230237    -0.00600
C1922       C  0.01270200  0.63965164  0.76090109    -0.12500
C1923       C  0.97302527  0.61836361  0.74775017     0.01600
C1924       C  0.94924273  0.57286890  0.74648384    -0.00700
C1925       C  0.96693850  0.54977063  0.75849871    -0.12500
C1926       C  0.00793511  0.57168425  0.77127691     0.01500
H1927       H  0.03034411  0.67469930  0.76123746     0.14500
H1928       H  0.94792608  0.51482343  0.75909340     0.14500
C1929       C  0.02424143  0.54705719  0.78424641     0.36100
C1930       C  0.95698414  0.64429590  0.73595003     0.36000
N1931       N  0.03682826  0.52733806  0.79529577    -0.44200
N1932       N  0.94393937  0.66493355  0.72666080    -0.44200
C1933       C  0.83953069  0.48066382  0.83356760    -0.00600
C1934       C  0.80304912  0.45346756  0.84909257    -0.12500
C1935       C  0.80675226  0.43494139  0.87269028     0.01600
C1936       C  0.84788455  0.44224249  0.88069442    -0.00700
C1937       C  0.88505855  0.47477700  0.86743127    -0.12500
C1938       C  0.88101970  0.49466795  0.84409720     0.01500
H1939       H  0.77102590  0.44467478  0.84185520     0.14500
H1940       H  0.91699539  0.48243281  0.87402320     0.14500
C1941       C  0.91938421  0.52829630  0.83117088     0.36100
C1942       C  0.76714322  0.40644038  0.88709922     0.36000
N1943       N  0.95028428  0.55631747  0.82149677    -0.44200
N1944       N  0.73530624  0.38360473  0.89849610    -0.44200
C1945       C  0.70542026  0.48831241  0.80620591    -0.00600
C1946       C  0.71694507  0.52458583  0.82261171    -0.12500
C1947       C  0.69519942  0.52077903  0.84683218     0.01600
C1948       C  0.65947360  0.48070500  0.85415480    -0.00700
C1949       C  0.64435267  0.44587302  0.83608859    -0.12500
C1950       C  0.66712117  0.44904554  0.81239548     0.01500
H1951       H  0.74608883  0.55506446  0.81820027     0.14500
H1952       H  0.61641919  0.41499824  0.84155624     0.14500
C1953       C  0.65217289  0.41046933  0.79629014     0.36100
C1954       C  0.71491020  0.55658442  0.86528438     0.36000
N1955       N  0.64032351  0.37929785  0.78367879    -0.44200
N1956       N  0.73307325  0.58597728  0.87944668    -0.44200
C1957       C  0.05101510  0.90199081  0.62759669    -0.00600
C1958       C  0.03271740  0.90729742  0.65153842    -0.12500
C1959       C  0.98753842  0.88479619  0.65573714     0.01600
C1960       C  0.95983178  0.85561547  0.63600344    -0.00700
C1961       C  0.97861375  0.84700671  0.61357231    -0.12500
C1962       C  0.02352720  0.86996874  0.60910492     0.01500
H1963       H  0.05343056  0.93169822  0.66604868     0.14500
H1964       H  0.95777685  0.82410237  0.59849151     0.14500
C1965       C  0.04052203  0.86124397  0.58491625     0.36100
C1966       C  0.97099896  0.89448727  0.67964682     0.36000
N1967       N  0.05447504  0.85445924  0.56560519    -0.44200
N1968       N  0.95960991  0.90313370  0.69935931    -0.44200
C1969       C  0.82305321  0.61359221  0.69762419    -0.00600
C1970       C  0.84033253  0.61968699  0.67122464    -0.12500
C1971       C  0.84028715  0.64996154  0.65342774     0.01600
C1972       C  0.82292377  0.67582117  0.66174692    -0.00700
C1973       C  0.80573875  0.66985146  0.68817352    -0.12500
C1974       C  0.80548871  0.63928750  0.70592190     0.01500
H1975       H  0.85393091  0.60042309  0.66416329     0.14500
H1976       H  0.79199326  0.68903635  0.69512935     0.14500
C1977       C  0.78663041  0.63504283  0.73237418     0.36100
C1978       C  0.85829003  0.65341146  0.62677418     0.36000
N1979       N  0.77141101  0.63172295  0.75354297    -0.44200
N1980       N  0.87264885  0.65597682  0.60540930    -0.44200
C1981       C  0.88484690  0.00621941  0.65401191    -0.00600
C1982       C  0.89075022  0.97884004  0.67113724    -0.12500
C1983       C  0.86785963  0.93393279  0.66702674     0.01600
C1984       C  0.84250841  0.91615663  0.64344344    -0.00700
C1985       C  0.83209878  0.94278473  0.62856641    -0.12500
C1986       C  0.85076873  0.98686323  0.63512423     0.01500
H1987       H  0.91442781  0.99250056  0.68707689     0.14500
H1988       H  0.80975268  0.92937539  0.61181526     0.14500
C1989       C  0.83359576  0.01142380  0.62309336     0.36100
C1990       C  0.87136414  0.90710564  0.68715415     0.36000
N1991       N  0.81848913  0.03042130  0.61410697    -0.44200
N1992       N  0.87239711  0.88493681  0.70358191    -0.44200
C1993       C  0.92222133  0.79156301  0.54253569    -0.00600
C1994       C  0.95783685  0.83296329  0.53767140    -0.12500
C1995       C  0.98458303  0.84095757  0.51533489     0.01600
C1996       C  0.97576130  0.80719693  0.49729677    -0.00700
C1997       C  0.94250765  0.76518601  0.50305763    -0.12500
C1998       C  0.91581248  0.75688712  0.52568524     0.01500
H1999       H  0.96388498  0.85971254  0.55080853     0.14500
H2000       H  0.93599764  0.73917374  0.48914744     0.14500
C2001       C  0.88064478  0.71327695  0.52991576     0.36100
C2002       C  0.02042978  0.88426953  0.51106298     0.36000
N2003       N  0.85242004  0.67829985  0.53318328    -0.44200
N2004       N  0.04926043  0.91893837  0.50785507    -0.44200
C2005       C  0.76381061  0.78035952  0.52864631    -0.00600
C2006       C  0.74059551  0.80210976  0.52938349    -0.12500
C2007       C  0.73174371  0.81692845  0.50562727     0.01600
C2008       C  0.74722609  0.81081321  0.48068511    -0.00700
C2009       C  0.76485533  0.78380020  0.47963546    -0.12500
C2010       C  0.77253564  0.76783652  0.50341085     0.01500
H2011       H  0.73305093  0.81114529  0.54870749     0.14500
H2012       H  0.77681131  0.77895589  0.46053710     0.14500
C2013       C  0.79390505  0.74307111  0.50128331     0.36100
C2014       C  0.71233105  0.84354051  0.50796115     0.36000
N2015       N  0.81058721  0.72283750  0.49901741    -0.44200
N2016       N  0.69675465  0.86481339  0.51023740    -0.44200
C2017       C  0.35528229  0.55357196  0.53764247    -0.00600
C2018       C  0.33554428  0.51641777  0.55391849    -0.12500
C2019       C  0.29073377  0.49440014  0.55914493     0.01600
C2020       C  0.26456871  0.50854633  0.54717979    -0.00700
C2021       C  0.28365546  0.54267323  0.52845934    -0.12500
C2022       C  0.32872061  0.56568637  0.52405968     0.01500
H2023       H  0.35575596  0.50711439  0.56473734     0.14500
H2024       H  0.26390222  0.55393691  0.51910901     0.14500
C2025       C  0.34752841  0.60384846  0.50742613     0.36100
C2026       C  0.27259634  0.45869088  0.57776873     0.36000
N2027       N  0.36277977  0.63446391  0.49411340    -0.44200
N2028       N  0.25791374  0.43004294  0.59269333    -0.44200
C2029       C  0.47632310  0.73203746  0.55427448    -0.00600
C2030       C  0.46012230  0.73309993  0.52854117    -0.12500
C2031       C  0.44023454  0.75768431  0.52387336     0.01600
C2032       C  0.43595685  0.78123977  0.54519315    -0.00700
C2033       C  0.45870887  0.78585554  0.56918237    -0.12500
C2034       C  0.47870405  0.76165606  0.57394588     0.01500
H2035       H  0.45977937  0.71212782  0.51261259     0.14500
H2036       H  0.45721260  0.80532144  0.58536468     0.14500
C2037       C  0.49891859  0.76589872  0.59978910     0.36100
C2038       C  0.42375154  0.75734300  0.49740888     0.36000
N2039       N  0.51520034  0.76930809  0.62046301    -0.44200
N2040       N  0.41202808  0.75770888  0.47577599    -0.44200
C2041       C  0.61346830  0.67132219  0.58453672    -0.00600
C2042       C  0.62612977  0.64881790  0.60203726    -0.12500
C2043       C  0.66448566  0.66966958  0.61674343     0.01600
C2044       C  0.69220126  0.71455543  0.61449191    -0.00700
C2045       C  0.67921248  0.73791839  0.59815213    -0.12500
C2046       C  0.64010124  0.71679703  0.58334359     0.01500
H2047       H  0.60633815  0.61408838  0.60414324     0.14500
H2048       H  0.70105414  0.77228345  0.59547424     0.14500
C2049       C  0.62910154  0.74235597  0.56650010     0.36100
C2050       C  0.67626869  0.64363694  0.63270138     0.36000
N2051       N  0.62036465  0.76297159  0.55300388    -0.44200
N2052       N  0.68587439  0.62276840  0.64526252    -0.44200
C2053       C  0.47997872  0.50476147  0.52262325    -0.00600
C2054       C  0.47657169  0.46759360  0.53413378    -0.12500
C2055       C  0.47566852  0.43500379  0.51803562     0.01600
C2056       C  0.47738149  0.43881582  0.48955218    -0.00700
C2057       C  0.47895693  0.47523747  0.47806894    -0.12500
C2058       C  0.48054619  0.50810090  0.49417142     0.01500
H2059       H  0.47596773  0.46450884  0.55590963     0.14500
H2060       H  0.48023977  0.47882195  0.45631673     0.14500
C2061       C  0.48269064  0.54469571  0.48073359     0.36100
C2062       C  0.47346288  0.39847224  0.53155435     0.36000
N2063       N  0.48456738  0.57399197  0.46985094    -0.44200
N2064       N  0.47193725  0.36939919  0.54251290    -0.44200
C2065       C  0.37415089  0.50360328  0.63187477    -0.00600
C2066       C  0.33652331  0.50611684  0.63559402    -0.12500
C2067       C  0.30958300  0.48680676  0.65774047     0.01600
C2068       C  0.31959759  0.46362284  0.67616050    -0.00700
C2069       C  0.35289904  0.45526383  0.67034141    -0.12500
C2070       C  0.38018535  0.47476094  0.64812891     0.01500
H2071       H  0.33002967  0.52634708  0.62260643     0.14500
H2072       H  0.35973635  0.43639754  0.68425772     0.14500
C2073       C  0.41561304  0.46696647  0.64395997     0.36100
C2074       C  0.27378219  0.49399052  0.66220338     0.36000
N2075       N  0.44388824  0.46051348  0.64072512    -0.44200
N2076       N  0.24528772  0.50004092  0.66564538    -0.44200
C2077       C  0.54533183  0.70477588  0.70719297    -0.00600
C2078       C  0.51490531  0.66046003  0.70813792    -0.12500
C2079       C  0.50543337  0.63494685  0.68503104     0.01600
C2080       C  0.52693841  0.65391110  0.66069061    -0.00700
C2081       C  0.56153109  0.69665169  0.66061274    -0.12500
C2082       C  0.57109810  0.72227822  0.68385459     0.01500
H2083       H  0.49523713  0.64683887  0.72613881     0.14500
H2084       H  0.57826484  0.71108575  0.64183132     0.14500
C2085       C  0.60351396  0.76750028  0.68221291     0.36100
C2086       C  0.47069319  0.59053179  0.68614574     0.36000
N2087       N  0.62956321  0.80374194  0.68092297    -0.44200
N2088       N  0.44288206  0.55496520  0.68728018    -0.44200
loop_ 
_geom_bond_atom_site_label_1 
_geom_bond_atom_site_label_2 
_geom_bond_distance 
_geom_bond_site_symmetry_2 
_ccdc_geom_bond_type 
O1           C16   1.278       .  A
O1           Al9   1.943       .  S
C2           O12   1.259       .  A
C2            O3   1.264       .  A
C2         C2080   1.463       .  S
O3           Al5   1.901       .  S
O4            C6   1.259       .  A
O4           Al5   1.912       .  S
Al5          O13   1.874       .  S
Al5          O15   1.914       .  S
Al5          O14   1.762       .  S
C6           O19   1.256       .  A
C6         C2029   1.495       .  S
O7           C17   1.283       .  A
O7           Al9   1.971       .  S
O8           C21   1.261       .  A
O8          Al18   1.905       .  S
Al9          O22   1.920       .  S
Al9          O19   1.917       .  S
Al9          O14   1.775       .  S
O10          C17   1.266       .  A
O10         Al18   1.902       .  S
O11          C20   1.256       .  A
O11         Al18   1.892       .  S
O12         Al18   1.896       .  S
O13          C20   1.256       .  A
O14         Al18   1.779       .  S
O15          C16   1.269       .  A
C16        C2017   1.478       .  S
C17        C2041   1.505       .  S
C20        C2065   1.480       .  S
C21          O22   1.262       .  A
C21        C2053   1.484       .  S
O23          C38   1.289       .  A
O23         Al31   1.951       .  S
C24          O34   1.263       .  A
C24          O25   1.262       .  A
C24        C2005   1.477       .  S
O25         Al27   1.887       .  S
O26          C28   1.251       .  A
O26         Al27   1.928       .  S
Al27         O35   1.876       .  S
Al27         O37   1.928       .  S
Al27         O36   1.765       .  S
C28          O41   1.245       .  A
C28        C1984   1.501       .  S
O29          C39   1.287       .  A
O29         Al31   1.949       .  S
O30          C43   1.257       .  A
O30         Al40   1.934       .  S
Al31         O44   1.906       .  S
Al31         O41   1.896       .  S
Al31         O36   1.767       .  S
O32          C39   1.275       .  A
O32         Al40   1.905       .  S
O33          C42   1.256       .  A
O33         Al40   1.889       .  S
O34         Al40   1.921       .  S
O35          C42   1.256       .  A
O36         Al40   1.780       .  S
O37          C38   1.281       .  A
C38        C1960   1.487       .  S
C39        C2044   1.480       .  S
C42        C1993   1.476       .  S
C43          O44   1.250       .  A
C43        C1972   1.505       .  S
O45          C60   1.251       .  A
O45         Al53   1.901       .  S
C46          O56   1.259       .  A
C46          O47   1.262       .  A
C46        C1933   1.474       .  S
O47         Al49   1.921       .  S
O48          C50   1.271       .  A
O48         Al49   1.890       .  S
Al49         O57   1.875       .  S
Al49         O59   1.941       .  S
Al49         O58   1.778       .  S
C50          O63   1.285       .  A
C50        C1924   1.483       .  S
O51          C61   1.251       .  A
O51         Al53   1.922       .  S
O52          C65   1.273       .  A
O52         Al62   1.919       .  S
Al53         O66   1.944       .  S
Al53         O63   1.955       .  S
Al53         O58   1.780       .  S
O54          C61   1.256       .  A
O54         Al62   1.922       .  S
O55          C64   1.257       .  A
O55         Al62   1.884       .  S
O56         Al62   1.875       .  S
O57          C64   1.257       .  A
O58         Al62   1.769       .  S
O59          C60   1.260       .  A
C60        C1969   1.505       .  S
C61        C1912   1.491       .  S
C64        C1945   1.482       .  S
C65          O66   1.280       .  A
C65        C1897   1.480       .  S
O67          C82   1.254       .  A
O67         Al75   1.885       .  S
C68          O78   1.269       .  A
C68          O69   1.279       .  A
C68        C1888   1.473       .  S
O69         Al71   1.970       .  S
O70          C72   1.248       .  A
O70         Al71   1.812       .  S
Al71         O79   1.897       .  S
Al71         O81   1.922       .  S
Al71         O80   1.778       .  S
C72          O85   1.276       .  A
C72        C1921   1.488       .  S
O73          C83   1.248       .  A
O73         Al75   1.902       .  S
O74          C87   1.261       .  A
O74         Al84   1.832       .  S
Al75         O88   2.014       .  S
Al75         O85   1.983       .  S
Al75         O80   1.783       .  S
O76          C83   1.254       .  A
O76         Al84   1.920       .  S
O77          C86   1.256       .  A
O77         Al84   1.908       .  S
O78         Al84   1.884       .  S
O79          C86   1.250       .  A
O80         Al84   1.776       .  S
O81          C82   1.263       .  A
C82        C1849   1.502       .  S
C83        C1861   1.479       .  S
C86        C1873   1.460       .  S
C87          O88   1.291       .  A
C87        C1837   1.486       .  S
O89         C104   1.273       .  A
O89         Al97   1.944       .  S
C90         O100   1.265       .  A
C90          O91   1.260       .  A
C90        C1813   1.477       .  S
O91         Al93   1.880       .  S
O92          C94   1.255       .  A
O92         Al93   1.900   1_545  S
Al93        O101   1.883       .  S
Al93        O103   1.910       .  S
Al93        O102   1.769       .  S
C94         O107   1.258   1_545  A
C94        C1789   1.479       .  S
O95         C105   1.281       .  A
O95         Al97   1.953       .  S
O96         C109   1.266       .  A
O96        Al106   1.948       .  S
Al97        O110   1.899       .  S
Al97        O107   1.936       .  S
Al97        O102   1.783       .  S
O98         C105   1.269       .  A
O98        Al106   1.913       .  S
O99         C108   1.257       .  A
O99        Al106   1.892       .  S
O100       Al106   1.910       .  S
O101        C108   1.257       .  A
O102       Al106   1.778       .  S
O103        C104   1.267       .  A
C104       C1780   1.480       .  S
C105       C1804   1.487   1_565  S
C108       C1825   1.484       .  S
C109        O110   1.256       .  A
C109       C1852   1.497       .  S
O111        C126   1.283       .  A
O111       Al119   1.929       .  S
C112        O122   1.260       .  A
C112        O113   1.262       .  A
C112       C1765   1.464       .  S
O113       Al115   1.889       .  S
O114        C116   1.250       .  A
O114       Al115   1.918       .  S
Al115       O123   1.882       .  S
Al115       O125   1.927       .  S
Al115       O124   1.765       .  S
C116        O129   1.246       .  A
C116       C1741   1.491       .  S
O117        C127   1.289       .  A
O117       Al119   1.957       .  S
O118        C131   1.256       .  A
O118       Al128   1.931       .  S
Al119       O132   1.911       .  S
Al119       O129   1.905       .  S
Al119       O124   1.771       .  S
O120        C127   1.279       .  A
O120       Al128   1.926       .  S
O121        C130   1.258       .  A
O121       Al128   1.889       .  S
O122       Al128   1.899       .  S
O123        C130   1.255       .  A
O124       Al128   1.773       .  S
O125        C126   1.280       .  A
C126       C1717   1.474       .  S
C127       C1801   1.505       .  S
C130       C1753   1.475       .  S
C131        O132   1.251       .  A
C131       C1732   1.492       .  S
O133        C148   1.244       .  A
O133       Al141   1.887       .  S
C134        O144   1.255       .  A
C134        O135   1.264       .  A
C134       C1696   1.475       .  S
O135       Al137   1.936       .  S
O136        C138   1.280       .  A
O136       Al137   1.914       .  S
Al137       O145   1.897       .  S
Al137       O147   1.950       .  S
Al137       O146   1.778       .  S
C138        O151   1.290       .  A
C138       C1681   1.482       .  S
O139        C149   1.247       .  A
O139       Al141   1.920       .  S
O140        C153   1.278       .  A
O140       Al150   1.920       .  S
Al141       O154   1.949       .  S
Al141       O151   1.942       .  S
Al141       O146   1.765       .  S
O142        C149   1.251       .  A
O142       Al150   1.921       .  S
O143        C152   1.260       .  A
O143       Al150   1.884       .  S
O144       Al150   1.871       .  S
O145        C152   1.261       .  A
O146       Al150   1.756       .  S
O147        C148   1.257       .  A
C148       C1657   1.511       .  S
C149       C1672   1.496       .  S
C152       C1708   1.483       .  S
C153        O154   1.287       .  A
C153       C1648   1.481       .  S
O155        C170   1.255       .  A
O155       Al163   1.882       .  S
C156        O166   1.267       .  A
C156        O157   1.269       .  A
C156       C1636   1.456       .  S
O157       Al159   1.928       .  S
O158        C160   1.250       .  A
O158       Al159   1.836       .  S
Al159       O167   1.896       .  S
Al159       O169   1.902       .  S
Al159       O168   1.783       .  S
C160        O173   1.275       .  A
C160       C1684   1.496       .  S
O161        C171   1.257       .  A
O161       Al163   1.912       .  S
O162        C175   1.259       .  A
O162       Al172   1.856       .  S
Al163       O176   1.980       .  S
Al163       O173   1.974       .  S
Al163       O168   1.787       .  S
O164        C171   1.259       .  A
O164       Al172   1.929       .  S
O165        C174   1.256       .  A
O165       Al172   1.903       .  S
O166       Al172   1.882       .  S
O167        C174   1.253       .  A
O168       Al172   1.772       .  S
O169        C170   1.259       .  A
C170       C2056   1.488       .  S
C171       C1609   1.485       .  S
C174       C1621   1.463       .  S
C175        O176   1.280       .  A
C175       C1597   1.468       .  S
O177        C192   1.275       .  A
O177       Al185   1.940       .  S
C178        O188   1.260       .  A
C178        O179   1.264       .  A
C178       C1588   1.462       .  S
O179       Al181   1.894       .  S
O180        C182   1.258       .  A
O180       Al181   1.916       .  S
Al181       O189   1.890       .  S
Al181       O191   1.897       .  S
Al181       O190   1.770       .  S
C182        O195   1.259       .  A
C182       C1552   1.502       .  S
O183        C193   1.281       .  A
O183       Al185   1.985       .  S
O184        C197   1.263       .  A
O184       Al194   1.906       .  S
Al185       O198   1.948       .  S
Al185       O195   1.936       .  S
Al185       O190   1.783       .  S
O186        C193   1.265       .  A
O186       Al194   1.910       .  S
O187        C196   1.256       .  A
O187       Al194   1.900       .  S
O188       Al194   1.896       .  S
O189        C196   1.255       .  A
O190       Al194   1.784       .  S
O191        C192   1.266       .  A
C192       C1525   1.475       .  S
C193       C1561   1.514       .  S
C196       C1573   1.490       .  S
C197        O198   1.268       .  A
C197       C1537   1.506       .  S
O199        C214   1.276       .  A
O199       Al207   1.951       .  S
C200        O210   1.262       .  A
C200        O201   1.257       .  A
C200       C1516   1.476       .  S
O201       Al203   1.875       .  S
O202        C204   1.258       .  A
O202       Al203   1.907       .  S
Al203       O211   1.883       .  S
Al203       O213   1.900       .  S
Al203       O212   1.777       .  S
C204        O217   1.260       .  A
C204       C1489   1.493       .  S
O205        C215   1.281       .  A
O205       Al207   1.961       .  S
O206        C219   1.263       .  A
O206       Al216   1.928       .  S
Al207       O220   1.924       .  S
Al207       O217   1.939       .  S
Al207       O212   1.785       .  S
O208        C215   1.269       .  A
O208       Al216   1.915       .  S
O209        C218   1.261       .  A
O209       Al216   1.897       .  S
O210       Al216   1.913       .  S
O211        C218   1.257       .  A
O212       Al216   1.780       .  S
O213        C214   1.265       .  A
C214       C1477   1.478       .  S
C215       C1564   1.495       .  S
C218       C1504   1.488       .  S
C219        O220   1.258       .  A
C219       C1660   1.509       .  S
O221        C236   1.249       .  A
O221       Al229   1.852   1_545  S
C222        O232   1.270       .  A
C222        O223   1.281   1_565  A
C222       C1465   1.482       .  S
O223       Al225   1.975       .  S
O224        C226   1.256       .  A
O224       Al225   1.861   1_565  S
Al225       O233   1.914       .  S
Al225       O235   1.949       .  S
Al225       O234   1.786       .  S
C226        O239   1.274       .  A
C226       C1441   1.490       .  S
O227        C237   1.251       .  A
O227       Al229   1.911       .  S
O228        C241   1.261       .  A
O228       Al238   1.833       .  S
Al229       O242   1.993   1_565  S
Al229       O239   1.956       .  S
Al229       O234   1.784   1_565  S
O230        C237   1.249       .  A
O230       Al238   1.896   1_565  S
O231        C240   1.251       .  A
O231       Al238   1.878       .  S
O232       Al238   1.874   1_565  S
O233        C240   1.255       .  A
O234       Al238   1.773       .  S
O235        C236   1.266       .  A
C236       C1540   1.497       .  S
C237       C1429   1.482       .  S
C240       C1456   1.469       .  S
C241        O242   1.285       .  A
C241       C1420   1.478       .  S
O243        C258   1.256       .  A
O243       Al251   1.887       .  S
C244        O254   1.269       .  A
C244        O245   1.276       .  A
C244       C1393   1.471       .  S
O245       Al247   1.953       .  S
O246        C248   1.251       .  A
O246       Al247   1.850       .  S
Al247       O255   1.905       .  S
Al247       O257   1.933       .  S
Al247       O256   1.794       .  S
C248        O261   1.271       .  A
C248       C1444   1.497       .  S
O249        C259   1.258       .  A
O249       Al251   1.932       .  S
O250        C263   1.263       .  A
O250       Al260   1.859       .  S
Al251       O264   1.972       .  S
Al251       O261   1.957       .  S
Al251       O256   1.795       .  S
O252        C259   1.256       .  A
O252       Al260   1.912       .  S
O253        C262   1.251       .  A
O253       Al260   1.885       .  S
O254       Al260   1.876       .  S
O255        C262   1.251       .  A
O256       Al260   1.773       .  S
O257        C258   1.265       .  A
C258       C1729   1.508       .  S
C259       C1381   1.509       .  S
C262       C1408   1.465       .  S
C263        O264   1.280       .  A
C263       C1369   1.480       .  S
O265        C280   1.246       .  A
O265       Al273   1.882       .  S
C266        O276   1.259       .  A
C266        O267   1.263       .  A
C266       C1576   1.465       .  S
O267       Al269   1.916       .  S
O268        C270   1.274       .  A
O268       Al269   1.901       .  S
Al269       O277   1.874       .  S
Al269       O279   1.922       .  S
Al269       O278   1.774       .  S
C270        O283   1.291       .  A
C270       C1345   1.500       .  S
O271        C281   1.241       .  A
O271       Al273   1.886       .  S
O272        C285   1.280       .  A
O272       Al282   1.925       .  S
Al273       O286   1.959       .  S
Al273       O283   1.959       .  S
Al273       O278   1.765       .  S
O274        C281   1.251       .  A
O274       Al282   1.924       .  S
O275        C284   1.260       .  A
O275       Al282   1.896       .  S
O276       Al282   1.880       .  S
O277        C284   1.253       .  A
O278       Al282   1.759       .  S
O279        C280   1.254       .  A
C280       C1321   1.488       .  S
C281       C1336   1.488       .  S
C284       C1360   1.480       .  S
C285        O286   1.290       .  A
C285       C1612   1.490       .  S
O287        C302   1.254       .  A
O287       Al295   1.864       .  S
C288        O298   1.266       .  A
C288        O289   1.271       .  A
C288       C1309   1.464       .  S
O289       Al291   1.944       .  S
O290        C292   1.248       .  A
O290       Al291   1.843       .  S
Al291       O299   1.912       .  S
Al291       O301   1.948       .  S
Al291       O300   1.781       .  S
C292        O305   1.270       .  A
C292       C1348   1.470   1_565  S
O293        C303   1.253       .  A
O293       Al295   1.898       .  S
O294        C307   1.258       .  A
O294       Al304   1.859       .  S
Al295       O308   1.976       .  S
Al295       O305   1.953       .  S
Al295       O300   1.785       .  S
O296        C303   1.261       .  A
O296       Al304   1.937       .  S
O297        C306   1.257       .  A
O297       Al304   1.902       .  S
O298       Al304   1.871       .  S
O299        C306   1.259       .  A
O300       Al304   1.769       .  S
O301        C302   1.270       .  A
C302       C1300   1.498       .  S
C303       C1645   1.477   1_565  S
C306       C2008   1.471       .  S
C307        O308   1.279       .  A
C307       C1285   1.471       .  S
O309        C324   1.246       .  A
O309       Al317   1.873       .  S
C310        O320   1.254       .  A
C310        O311   1.259       .  A
C310       C1273   1.470       .  S
O311       Al313   1.913       .  S
O312        C314   1.275       .  A
O312       Al313   1.916       .  S
Al313       O321   1.897       .  S
Al313       O323   1.938       .  S
Al313       O322   1.777       .  S
C314        O327   1.282       .  A
C314       C1249   1.484       .  S
O315        C325   1.252       .  A
O315       Al317   1.915       .  S
O316        C329   1.267       .  A
O316       Al326   1.908       .  S
Al317       O330   1.950       .  S
Al317       O327   1.932       .  S
Al317       O322   1.780       .  S
O318        C325   1.258       .  A
O318       Al326   1.916       .  S
O319        C328   1.262       .  A
O319       Al326   1.888       .  S
O320       Al326   1.863       .  S
O321        C328   1.261       .  A
O322       Al326   1.768       .  S
O323        C324   1.259       .  A
C324       C1261   1.486       .  S
C325       C1372   1.471       .  S
C328       C1513   1.486       .  S
C329        O330   1.279       .  A
C329       C1240   1.478       .  S
O331        C346   1.256       .  A
O331       Al339   1.884       .  S
C332        O342   1.267       .  A
C332        O333   1.271       .  A
C332       C1828   1.462       .  S
O333       Al335   1.936       .  S
O334        C336   1.250       .  A
O334       Al335   1.839       .  S
Al335       O343   1.900       .  S
Al335       O345   1.916       .  S
Al335       O344   1.787       .  S
C336        O349   1.272       .  A
C336       C1252   1.491   1_655  S
O337        C347   1.257       .  A
O337       Al339   1.917   1_455  S
O338        C351   1.260       .  A
O338       Al348   1.858       .  S
Al339       O352   1.971       .  S
Al339       O349   1.963       .  S
Al339       O344   1.795       .  S
O340        C347   1.256   1_655  A
O340       Al348   1.912       .  S
O341        C350   1.252       .  A
O341       Al348   1.894       .  S
O342       Al348   1.883       .  S
O343        C350   1.253       .  A
O344       Al348   1.775       .  S
O345        C346   1.261       .  A
C346       C1204   1.493       .  S
C347       C1213   1.485       .  S
C350       C1225   1.465       .  S
C351        O352   1.279       .  A
C351       C1432   1.468       .  S
O353        C368   1.292       .  A
O353       Al361   1.970       .  S
C354        O364   1.263       .  A
C354        O355   1.260       .  A
C354       C1624   1.468       .  S
O355       Al357   1.881       .  S
O356        C358   1.250       .  A
O356       Al357   1.918       .  S
Al357       O365   1.883       .  S
Al357       O367   1.918       .  S
Al357       O366   1.763       .  S
C358        O371   1.244       .  A
C358       C1165   1.498       .  S
O359        C369   1.294       .  A
O359       Al361   1.979       .  S
O360        C373   1.251       .  A
O360       Al370   1.919       .  S
Al361       O374   1.895       .  S
Al361       O371   1.897       .  S
Al361       O366   1.760       .  S
O362        C369   1.277       .  A
O362       Al370   1.912       .  S
O363        C372   1.254       .  A
O363       Al370   1.884       .  S
O364       Al370   1.915       .  S
O365        C372   1.258       .  A
O366       Al370   1.777       .  S
O367        C368   1.278       .  A
C368       C1549   1.495       .  S
C369       C1177   1.505       .  S
C372       C1189   1.474       .  S
C373        O374   1.247       .  A
C373       C1201   1.497       .  S
O375        C390   1.277       .  A
O375       Al383   1.956       .  S
C376        O386   1.262       .  A
C376        O377   1.261       .  A
C376       C1153   1.463       .  S
O377       Al379   1.877       .  S
O378        C380   1.259       .  A
O378       Al379   1.926       .  S
Al379       O387   1.889       .  S
Al379       O389   1.921       .  S
Al379       O388   1.774       .  S
C380        O393   1.256       .  A
C380       C1480   1.493       .  S
O381        C391   1.287       .  A
O381       Al383   1.975       .  S
O382        C395   1.263       .  A
O382       Al392   1.936       .  S
Al383       O396   1.893       .  S
Al383       O393   1.923       .  S
Al383       O388   1.777       .  S
O384        C391   1.273       .  A
O384       Al392   1.918       .  S
O385        C394   1.258       .  A
O385       Al392   1.896       .  S
O386       Al392   1.900       .  S
O387        C394   1.259       .  A
O388       Al392   1.776       .  S
O389        C390   1.269       .  A
C390       C1144   1.488       .  S
C391       C1180   1.514       .  S
C394       C1396   1.486       .  S
C395        O396   1.254       .  A
C395       C1297   1.482       .  S
O397        C412   1.269       .  A
O397       Al405   1.928       .  S
C398        O408   1.265       .  A
C398        O399   1.266       .  A
C398       C1453   1.473   1_455  S
O399       Al401   1.901       .  S
O400        C402   1.260       .  A
O400       Al401   1.908   1_655  S
Al401       O409   1.912       .  S
Al401       O411   1.882       .  S
Al401       O410   1.771       .  S
C402        O415   1.254       .  A
C402       C1105   1.486       .  S
O403        C413   1.271       .  A
O403       Al405   1.950   1_655  S
O404        C417   1.265       .  A
O404       Al414   1.909       .  S
Al405       O418   1.916       .  S
Al405       O415   1.898   1_455  S
Al405       O410   1.786       .  S
O406        C413   1.261   1_455  A
O406       Al414   1.904       .  S
O407        C416   1.256       .  A
O407       Al414   1.891       .  S
O408       Al414   1.911       .  S
O409        C416   1.257       .  A
O410       Al414   1.781       .  S
O411        C412   1.263       .  A
C412       C1792   1.466       .  S
C413       C1117   1.483       .  S
C416       C1132   1.488       .  S
C417        O418   1.265       .  A
C417       C1093   1.492       .  S
O419        C434   1.291       .  A
O419       Al427   1.952       .  S
C420        O430   1.260       .  A
C420        O421   1.260       .  A
C420       C1084   1.457       .  S
O421       Al423   1.876       .  S
O422        C424   1.249       .  A
O422       Al423   1.916       .  S
Al423       O431   1.865       .  S
Al423       O433   1.926       .  S
Al423       O432   1.754       .  S
C424        O437   1.243       .  A
C424       C1720   1.486       .  S
O425        C435   1.291       .  A
O425       Al427   1.956       .  S
O426        C439   1.258       .  A
O426       Al436   1.924       .  S
Al427       O440   1.895       .  S
Al427       O437   1.892       .  S
Al427       O432   1.767       .  S
O428        C435   1.281       .  A
O428       Al436   1.930       .  S
O429        C438   1.260       .  A
O429       Al436   1.919       .  S
O430       Al436   1.903       .  S
O431        C438   1.254       .  A
O432       Al436   1.774       .  S
O433        C434   1.281       .  A
C434       C1069   1.484       .  S
C435       C1120   1.505       .  S
C438       C1936   1.488       .  S
C439        O440   1.247       .  A
C439       C1264   1.486       .  S
O441        C456   1.252       .  A
O441       Al449   1.864       .  S
C442        O452   1.268       .  A
C442        O443   1.272       .  A
C442       C2068   1.457       .  S
O443       Al445   1.940       .  S
O444        C446   1.251       .  A
O444       Al445   1.838       .  S
Al445       O453   1.904       .  S
Al445       O455   1.916       .  S
Al445       O454   1.788       .  S
C446        O459   1.273       .  A
C446       C1045   1.489       .  S
O447        C457   1.251       .  A
O447       Al449   1.903       .  S
O448        C461   1.260       .  A
O448       Al458   1.840       .  S
Al449       O462   1.993       .  S
Al449       O459   1.959       .  S
Al449       O454   1.785       .  S
O450        C457   1.255       .  A
O450       Al458   1.914       .  S
O451        C460   1.254       .  A
O451       Al458   1.886       .  S
O452       Al458   1.874       .  S
O453        C460   1.254       .  A
O454       Al458   1.771       .  S
O455        C456   1.260       .  A
C456       C1096   1.486       .  S
C457       C1036   1.494       .  S
C460       C1057   1.458       .  S
C461        O462   1.284       .  A
C461       C1864   1.481       .  S
O463        C478   1.254       .  A
O463       Al471   1.868       .  S
C464        O474   1.267       .  A
C464        O465   1.267       .  A
C464       C1021   1.458       .  S
O465       Al467   1.925       .  S
O466        C468   1.252       .  A
O466       Al467   1.840       .  S
Al467       O475   1.901       .  S
Al467       O477   1.921       .  S
Al467       O476   1.782       .  S
C468        O481   1.275       .  A
C468       C1048   1.489       .  S
O469        C479   1.253       .  A
O469       Al471   1.899       .  S
O470        C483   1.253       .  A
O470       Al480   1.848       .  S
Al471       O484   1.987       .  S
Al471       O481   1.965       .  S
Al471       O476   1.783       .  S
O472        C479   1.264       .  A
O472       Al480   1.947       .  S
O473        C482   1.260       .  A
O473       Al480   1.903       .  S
O474       Al480   1.887       .  S
O475        C482   1.258       .  A
O476       Al480   1.768       .  S
O477        C478   1.262       .  A
C478       C1012   1.485       .  S
C479       C1900   1.484       .  S
C482       C1768   1.462       .  S
C483        O484   1.279       .  A
C483        C997   1.469       .  S
O485        C500   1.275       .  A
O485       Al493   1.936   1_545  S
C486        O496   1.258       .  A
C486        O487   1.264       .  A
C486        C988   1.449       .  S
O487       Al489   1.888   1_565  S
O488        C490   1.255       .  A
O488       Al489   1.902   1_565  S
Al489       O497   1.901       .  S
Al489       O499   1.897       .  S
Al489       O498   1.766       .  S
C490        O503   1.254       .  A
C490       C1957   1.491       .  S
O491        C501   1.281       .  A
O491       Al493   1.985       .  S
O492        C505   1.264       .  A
O492       Al502   1.900       .  S
Al493       O506   1.925   1_565  S
Al493       O503   1.915       .  S
Al493       O498   1.783   1_565  S
O494        C501   1.262   1_545  A
O494       Al502   1.906       .  S
O495        C504   1.253       .  A
O495       Al502   1.890       .  S
O496       Al502   1.884   1_565  S
O497        C504   1.257       .  A
O498       Al502   1.783       .  S
O499        C500   1.268       .  A
C500        C961   1.473       .  S
C501        C973   1.508       .  S
C504       C1693   1.487       .  S
C505        O506   1.267       .  A
C505       C1009   1.486       .  S
O507        C522   1.285       .  A
O507       Al515   1.955       .  S
C508        O518   1.259       .  A
C508        O509   1.257       .  A
C508       C1876   1.463       .  S
O509       Al511   1.866       .  S
O510        C512   1.249       .  A
O510       Al511   1.908       .  S
Al511       O519   1.870       .  S
Al511       O521   1.917       .  S
Al511       O520   1.759       .  S
C512        O525   1.249       .  A
C512        C937   1.489       .  S
O513        C523   1.288       .  A
O513       Al515   1.960       .  S
O514        C527   1.258       .  A
O514       Al524   1.921       .  S
Al515       O528   1.893       .  S
Al515       O525   1.923       .  S
Al515       O520   1.775       .  S
O516        C523   1.273       .  A
O516       Al524   1.911       .  S
O517        C526   1.257       .  A
O517       Al524   1.904       .  S
O518       Al524   1.902       .  S
O519        C526   1.255       .  A
O520       Al524   1.782       .  S
O521        C522   1.276       .  A
C522       C2032   1.486       .  S
C523        C976   1.485       .  S
C526        C949   1.465       .  S
C527        O528   1.250       .  A
C527       C1324   1.490       .  S
O529        C544   1.256       .  A
O529       Al537   1.870       .  S
C530        O540   1.263       .  A
C530        O531   1.282       .  A
C530        C952   1.492       .  S
O531       Al533   1.981       .  S
O532        C534   1.248       .  A
O532       Al533   1.839       .  S
Al533       O541   1.910       .  S
Al533       O543   1.967       .  S
Al533       O542   1.778       .  S
C534        O547   1.277       .  A
C534        C928   1.494       .  S
O535        C545   1.254       .  A
O535       Al537   1.903       .  S
O536        C549   1.254       .  A
O536       Al546   1.855       .  S
Al537       O550   2.018       .  S
Al537       O547   1.978       .  S
Al537       O542   1.778       .  S
O538        C545   1.262       .  A
O538       Al546   1.950       .  S
O539        C548   1.255       .  A
O539       Al546   1.892       .  S
O540       Al546   1.849       .  S
O541        C548   1.256       .  A
O542       Al546   1.759       .  S
O543        C544   1.274       .  A
C544        C913   1.510       .  S
C545       C1840   1.485       .  S
C548       C2077   1.468       .  S
C549        O550   1.287       .  A
C549       C1033   1.476       .  S
O551        C566   1.249       .  A
O551       Al559   1.862       .  S
C552        O562   1.267       .  A
C552        O553   1.281       .  A
C552       C1756   1.461       .  S
O553       Al555   1.967       .  S
O554        C556   1.250       .  A
O554       Al555   1.832       .  S
Al555       O563   1.900       .  S
Al555       O565   1.924       .  S
Al555       O564   1.779       .  S
C556        O569   1.280       .  A
C556        C925   1.506       .  S
O557        C567   1.251       .  A
O557       Al559   1.912       .  S
O558        C571   1.262       .  A
O558       Al568   1.829       .  S
Al559       O572   2.021       .  S
Al559       O569   1.990       .  S
Al559       O564   1.780       .  S
O560        C567   1.249       .  A
O560       Al568   1.892       .  S
O561        C570   1.252       .  A
O561       Al568   1.891       .  S
O562       Al568   1.865       .  S
O563        C570   1.250       .  A
O564       Al568   1.771       .  S
O565        C566   1.263       .  A
C566        C901   1.488       .  S
C567       C1000   1.490       .  S
C570       C1081   1.460       .  S
C571        O572   1.293       .  A
C571       C1909   1.487       .  S
O573        C588   1.285       .  A
O573       Al581   1.937       .  S
C574        O584   1.260       .  A
C574        O575   1.263       .  A
C574       C1060   1.459       .  S
O575       Al577   1.886       .  S
O576        C578   1.249       .  A
O576       Al577   1.914       .  S
Al577       O585   1.871       .  S
Al577       O587   1.924       .  S
Al577       O586   1.758       .  S
C578        O591   1.245       .  A
C578       C2020   1.489       .  S
O579        C589   1.288       .  A
O579       Al581   1.962       .  S
O580        C593   1.260       .  A
O580       Al590   1.926       .  S
Al581       O594   1.905       .  S
Al581       O591   1.904       .  S
Al581       O586   1.777       .  S
O582        C589   1.277       .  A
O582       Al590   1.928       .  S
O583        C592   1.257       .  A
O583       Al590   1.909       .  S
O584       Al590   1.896       .  S
O585        C592   1.254       .  A
O586       Al590   1.781       .  S
O587        C588   1.281       .  A
C588        C940   1.475       .  S
C589        C889   1.509       .  S
C592       C1885   1.489       .  S
C593        O594   1.252       .  A
C593        C877   1.495       .  S
O595        C610   1.279       .  A
O595       Al603   1.959       .  S
C596        O606   1.263       .  A
C596        O597   1.259       .  A
C596       C1705   1.475   1_655  S
O597       Al599   1.864       .  S
O598        C600   1.255       .  A
O598       Al599   1.909   1_455  S
Al599       O607   1.862       .  S
Al599       O609   1.923       .  S
Al599       O608   1.761       .  S
C600        O613   1.256       .  A
C600        C964   1.483       .  S
O601        C611   1.285       .  A
O601       Al603   1.951   1_455  S
O602        C615   1.265       .  A
O602       Al612   1.955       .  S
Al603       O616   1.885       .  S
Al603       O613   1.932   1_655  S
Al603       O608   1.778       .  S
O604        C611   1.276   1_655  A
O604       Al612   1.931       .  S
O605        C614   1.262       .  A
O605       Al612   1.911       .  S
O606       Al612   1.912       .  S
O607        C614   1.253       .  A
O608       Al612   1.777       .  S
O609        C610   1.270       .  A
C610       C1981   1.489       .  S
C611        C892   1.490       .  S
C614       C1312   1.483       .  S
C615        O616   1.248       .  A
C615        C904   1.497       .  S
O617        C632   1.276       .  A
O617       Al625   1.948       .  S
C618        O628   1.265       .  A
C618        O619   1.261       .  A
C618       C1948   1.469       .  S
O619       Al621   1.888       .  S
O620        C622   1.258       .  A
O620       Al621   1.909       .  S
Al621       O629   1.884       .  S
Al621       O631   1.907       .  S
Al621       O630   1.768       .  S
C622        O635   1.262       .  A
C622       C1072   1.491       .  S
O623        C633   1.285       .  A
O623       Al625   1.980       .  S
O624        C637   1.268       .  A
O624       Al634   1.929       .  S
Al625       O638   1.925       .  S
Al625       O635   1.943       .  S
Al625       O630   1.773       .  S
O626        C633   1.265       .  A
O626       Al634   1.898       .  S
O627        C636   1.258       .  A
O627       Al634   1.894       .  S
O628       Al634   1.915       .  S
O629        C636   1.258       .  A
O630       Al634   1.774       .  S
O631        C632   1.265       .  A
C632       C1744   1.477       .  S
C633        C856   1.509       .  S
C636       C1024   1.480       .  S
C637        O638   1.264       .  A
C637        C868   1.499       .  S
O639        C654   1.289       .  A
O639       Al647   1.946       .  S
C640        O650   1.266       .  A
C640        O641   1.258       .  A
C640       C1228   1.473       .  S
O641       Al643   1.874       .  S
O642        C644   1.249       .  A
O642       Al643   1.920       .  S
Al643       O651   1.888       .  S
Al643       O653   1.917       .  S
Al643       O652   1.761       .  S
C644        O657   1.244       .  A
C644       C1777   1.498       .  S
O645        C655   1.291       .  A
O645       Al647   1.955       .  S
O646        C659   1.259       .  A
O646       Al656   1.942       .  S
Al647       O660   1.900       .  S
Al647       O657   1.900       .  S
Al647       O652   1.761       .  S
O648        C655   1.276       .  A
O648       Al656   1.910       .  S
O649        C658   1.260       .  A
O649       Al656   1.907       .  S
O650       Al656   1.925       .  S
O651        C658   1.257       .  A
O652       Al656   1.774       .  S
O653        C654   1.280       .  A
C654       C1108   1.481       .  S
C655        C853   1.483       .  S
C658       C1468   1.493       .  S
C659        O660   1.248       .  A
C659        C916   1.502       .  S
O661        C676   1.246       .  A
O661       Al669   1.898       .  S
C662        O672   1.256       .  A
C662        O663   1.263       .  A
C662       C1501   1.466       .  S
O663       Al665   1.928       .  S
O664        C666   1.276       .  A
O664       Al665   1.894       .  S
Al665       O673   1.876       .  S
Al665       O675   1.919       .  S
Al665       O674   1.774       .  S
C666        O679   1.296       .  A
C666        C844   1.507       .  S
O667        C677   1.243       .  A
O667       Al669   1.888       .  S
O668        C681   1.277       .  A
O668       Al678   1.890       .  S
Al669       O682   1.984       .  S
Al669       O679   1.974       .  S
Al669       O674   1.751       .  S
O670        C677   1.251       .  A
O670       Al678   1.924       .  S
O671        C680   1.261       .  A
O671       Al678   1.896       .  S
O672       Al678   1.878       .  S
O673        C680   1.257       .  A
O674       Al678   1.761       .  S
O675        C676   1.251       .  A
C676        C865   1.501       .  S
C677       C1237   1.495       .  S
C680       C1156   1.466       .  S
C681        O682   1.298       .  A
C681       C1384   1.493       .  S
O683        C698   1.244       .  A
O683       Al691   1.883       .  S
C684        O694   1.257       .  A
C684        O685   1.268       .  A
C684       C1129   1.476       .  S
O685       Al687   1.941       .  S
O686        C688   1.274       .  A
O686       Al687   1.897       .  S
Al687       O695   1.887       .  S
Al687       O697   1.948       .  S
Al687       O696   1.774       .  S
C688        O701   1.292       .  A
C688        C841   1.481       .  S
O689        C699   1.242       .  A
O689       Al691   1.890       .  S
O690        C703   1.280       .  A
O690       Al700   1.916       .  S
Al691       O704   1.967       .  S
Al691       O701   1.960       .  S
Al691       O696   1.759       .  S
O692        C699   1.249       .  A
O692       Al700   1.919       .  S
O693        C702   1.261       .  A
O693       Al700   1.892       .  S
O694       Al700   1.870       .  S
O695        C702   1.257       .  A
O696       Al700   1.760       .  S
O697        C698   1.259       .  A
C698        C829   1.503       .  S
C699       C1417   1.490       .  S
C702       C1816   1.481       .  S
C703        O704   1.292       .  A
C703       C1216   1.494       .  S
O705        C720   1.246       .  A
O705       Al713   1.849       .  S
C706        O716   1.269       .  A
C706        O707   1.278       .  A
C706       C1192   1.462       .  S
O707       Al709   1.957       .  S
O708        C710   1.254       .  A
O708       Al709   1.841       .  S
Al709       O717   1.906       .  S
Al709       O719   1.927       .  S
Al709       O718   1.786       .  S
C710        O723   1.275       .  A
C710        C820   1.491       .  S
O711        C721   1.247       .  A
O711       Al713   1.900       .  S
O712        C725   1.262       .  A
O712       Al722   1.828       .  S
Al713       O726   1.998       .  S
Al713       O723   1.960       .  S
Al713       O718   1.781       .  S
O714        C721   1.248       .  A
O714       Al722   1.896       .  S
O715        C724   1.252       .  A
O715       Al722   1.881       .  S
O716       Al722   1.870       .  S
O717        C724   1.253       .  A
O718       Al722   1.773       .  S
O719        C720   1.261       .  A
C720        C880   1.487       .  S
C721       C1600   1.483       .  S
C724       C1585   1.464       .  S
C725        O726   1.288       .  A
C725       C1333   1.478       .  S
O727        C742   1.249       .  A
O727       Al735   1.858       .  S
C728        O738   1.268       .  A
C728        O729   1.273   1_655  A
C728       C1996   1.460       .  S
O729       Al731   1.940       .  S
O730        C732   1.253   1_455  A
O730       Al731   1.845       .  S
Al731       O739   1.898       .  S
Al731       O741   1.915       .  S
Al731       O740   1.789       .  S
C732        O745   1.275       .  A
C732        C817   1.488       .  S
O733        C743   1.249       .  A
O733       Al735   1.905   1_655  S
O734        C747   1.261       .  A
O734       Al744   1.839       .  S
Al735       O748   2.003       .  S
Al735       O745   1.960   1_455  S
Al735       O740   1.783       .  S
O736        C743   1.248       .  A
O736       Al744   1.891   1_655  S
O737        C746   1.251       .  A
O737       Al744   1.876       .  S
O738       Al744   1.880   1_655  S
O739        C746   1.253       .  A
O740       Al744   1.776       .  S
O741        C742   1.259       .  A
C742        C805   1.481       .  S
C743       C1288   1.479       .  S
C746        C985   1.458       .  S
C747        O748   1.286       .  A
C747       C1669   1.487       .  S
O749        C764   1.292       .  A
O749       Al757   1.958       .  S
C750        O760   1.264       .  A
C750        O751   1.264       .  A
C750       C1405   1.469       .  S
O751       Al753   1.886       .  S
O752        C754   1.251       .  A
O752       Al753   1.926       .  S
Al753       O761   1.885       .  S
Al753       O763   1.917       .  S
Al753       O762   1.761       .  S
C754        O767   1.242       .  A
C754       C1141   1.494       .  S
O755        C765   1.291       .  A
O755       Al757   1.970       .  S
O756        C769   1.255       .  A
O756       Al766   1.918       .  S
Al757       O770   1.900       .  S
Al757       O767   1.882       .  S
Al757       O762   1.763       .  S
O758        C765   1.274       .  A
O758       Al766   1.913       .  S
O759        C768   1.251       .  A
O759       Al766   1.880       .  S
O760       Al766   1.911       .  S
O761        C768   1.257       .  A
O762       Al766   1.779       .  S
O763        C764   1.280       .  A
C764       C1492   1.485       .  S
C765        C796   1.507       .  S
C768       C1276   1.479       .  S
C769        O770   1.251       .  A
C769        C808   1.492       .  S
O771        C786   1.277       .  A
O771       Al779   1.961       .  S
C772        O782   1.264       .  A
C772        O773   1.255       .  A
C772       C1357   1.474       .  S
O773       Al775   1.864       .  S
O774        C776   1.256       .  A
O774       Al775   1.911       .  S
Al775       O783   1.875       .  S
Al775       O785   1.920       .  S
Al775       O784   1.772       .  S
C776        O789   1.259       .  A
C776       C1528   1.488       .  S
O777        C787   1.283       .  A
O777       Al779   1.953       .  S
O778        C791   1.266       .  A
O778       Al788   1.950       .  S
Al779       O792   1.900       .  S
Al779       O789   1.941       .  S
Al779       O784   1.778       .  S
O780        C787   1.269       .  A
O780       Al788   1.906       .  S
O781        C790   1.258       .  A
O781       Al788   1.891       .  S
O782       Al788   1.923       .  S
O783        C790   1.258       .  A
O784       Al788   1.777       .  S
O785        C786   1.268       .  A
C786       C1168   1.491       .  S
C787        C793   1.483       .  S
C790       C1633   1.482       .  S
C791        O792   1.254       .  A
C791        C832   1.504       .  S
C793        C794   1.411       .  A
C793        C798   1.405   1_545  A
C794        C795   1.415   1_545  A
C794        H799   1.084       .  S
C795        C796   1.411       .  A
C795        C802   1.440       .  S
C796        C797   1.416       .  A
C797        C798   1.400       .  A
C797        H800   1.083       .  S
C798        C801   1.446   1_565  S
C801        N803   1.157       .  T
C802        N804   1.156       .  T
C805        C806   1.406       .  A
C805        C810   1.408       .  A
C806        C807   1.400       .  A
C806        H811   1.085       .  S
C807        C808   1.414       .  A
C807        C814   1.444       .  S
C808        C809   1.412       .  A
C809        C810   1.401       .  A
C809        H812   1.084       .  S
C810        C813   1.445       .  S
C813        N815   1.157       .  T
C814        N816   1.157       .  T
C817        C818   1.415       .  A
C817        C822   1.403       .  A
C818        C819   1.405       .  A
C818        H823   1.085       .  S
C819        C820   1.405       .  A
C819        C826   1.443       .  S
C820        C821   1.415       .  A
C821        C822   1.400       .  A
C821        H824   1.084       .  S
C822        C825   1.443       .  S
C825        N827   1.157       .  T
C826        N828   1.157       .  T
C829        C830   1.415       .  A
C829        C834   1.410       .  A
C830        C831   1.409       .  A
C830        H835   1.084       .  S
C831        C832   1.412       .  A
C831        C838   1.444       .  S
C832        C833   1.415       .  A
C833        C834   1.406       .  A
C833        H836   1.084       .  S
C834        C837   1.443       .  S
C837        N839   1.157       .  T
C838        N840   1.158       .  T
C841        C842   1.406       .  A
C841        C846   1.405       .  A
C842        C843   1.416       .  A
C842        H847   1.079       .  S
C843        C844   1.415       .  A
C843        C850   1.442       .  S
C844        C845   1.417       .  A
C845        C846   1.397       .  A
C845        H848   1.084       .  S
C846        C849   1.446       .  S
C849        N851   1.157       .  T
C850        N852   1.157       .  T
C853        C854   1.410       .  A
C853        C858   1.404       .  A
C854        C855   1.417       .  A
C854        H859   1.080       .  S
C855        C856   1.414       .  A
C855        C862   1.441       .  S
C856        C857   1.418       .  A
C857        C858   1.399       .  A
C857        H860   1.084       .  S
C858        C861   1.446       .  S
C861        N863   1.157       .  T
C862        N864   1.157       .  T
C865        C866   1.411   1_554  A
C865        C870   1.415       .  A
C866        C867   1.407       .  A
C866        H871   1.084       .  S
C867        C868   1.413       .  A
C867        C874   1.443       .  S
C868        C869   1.410   1_556  A
C869        C870   1.405       .  A
C869        H872   1.085       .  S
C870        C873   1.444       .  S
C873        N875   1.157       .  T
C874        N876   1.157       .  T
C877        C878   1.403   1_455  A
C877        C882   1.424       .  A
C878        C879   1.400       .  A
C878        H883   1.085   1_655  S
C879        C880   1.419       .  A
C879        C886   1.446       .  S
C880        C881   1.400       .  A
C881        C882   1.404   1_655  A
C881        H884   1.085       .  S
C882        C885   1.444       .  S
C885        N887   1.157       .  T
C886        N888   1.157       .  T
C889        C890   1.415       .  A
C889        C894   1.414       .  A
C890        C891   1.403       .  A
C890        H895   1.084       .  S
C891        C892   1.405       .  A
C891        C898   1.445       .  S
C892        C893   1.411       .  A
C893        C894   1.418       .  A
C893        H896   1.084       .  S
C894        C897   1.442       .  S
C897        N899   1.157       .  T
C898        N900   1.157   1_455  T
C901        C902   1.396       .  A
C901        C906   1.420       .  A
C902        C903   1.399       .  A
C902        H907   1.085       .  S
C903        C904   1.428       .  A
C903        C910   1.445       .  S
C904        C905   1.403       .  A
C905        C906   1.406       .  A
C905        H908   1.084       .  S
C906        C909   1.444       .  S
C909        N911   1.157       .  T
C910        N912   1.158       .  T
C913        C914   1.416       .  A
C913        C918   1.415       .  A
C914        C915   1.406       .  A
C914        H919   1.084       .  S
C915        C916   1.410       .  A
C915        C922   1.444       .  S
C916        C917   1.413       .  A
C917        C918   1.412       .  A
C917        H920   1.084       .  S
C918        C921   1.443       .  S
C921        N923   1.157       .  T
C922        N924   1.157       .  T
C925        C926   1.422       .  A
C925        C930   1.407   1_545  A
C926        C927   1.403   1_545  A
C926        H931   1.085       .  S
C927        C928   1.402       .  A
C927        C934   1.444       .  S
C928        C929   1.418       .  A
C929        C930   1.411       .  A
C929        H932   1.085       .  S
C930        C933   1.442       .  S
C933        N935   1.157   1_565  T
C934        N936   1.157       .  T
C937        C938   1.402       .  A
C937        C942   1.417       .  A
C938        C939   1.402       .  A
C938        H943   1.084       .  S
C939        C940   1.410       .  A
C939        C946   1.442       .  S
C940        C941   1.400       .  A
C941        C942   1.406       .  A
C941        H944   1.085       .  S
C942        C945   1.439       .  S
C945        N947   1.155       .  T
C946        N948   1.157       .  T
C949        C950   1.393       .  A
C949        C954   1.406       .  A
C950        C951   1.385       .  A
C950        H955   1.088       .  S
C951        C952   1.424       .  A
C951        C958   1.447       .  S
C952        C953   1.414       .  A
C953        C954   1.411       .  A
C953        H956   1.084       .  S
C954        C957   1.442       .  S
C957        N959   1.157       .  T
C958        N960   1.157       .  T
C961        C962   1.400       .  A
C961        C966   1.412       .  A
C962        C963   1.405       .  A
C962        H967   1.085       .  S
C963        C964   1.416       .  A
C963        C970   1.441       .  S
C964        C965   1.401       .  A
C965        C966   1.402       .  A
C965        H968   1.085       .  S
C966        C969   1.444       .  S
C969        N971   1.157       .  T
C970        N972   1.156   1_455  T
C973        C974   1.416       .  A
C973        C978   1.412       .  A
C974        C975   1.400       .  A
C974        H979   1.081       .  S
C975        C976   1.403       .  A
C975        C982   1.445       .  S
C976        C977   1.413       .  A
C977        C978   1.417       .  A
C977        H980   1.081       .  S
C978        C981   1.442       .  S
C981        N983   1.157       .  T
C982        N984   1.157       .  T
C985        C986   1.403       .  A
C985        C990   1.412       .  A
C986        C987   1.399       .  A
C986        H991   1.085       .  S
C987        C988   1.408       .  A
C987        C994   1.443       .  S
C988        C989   1.393       .  A
C989        C990   1.384       .  A
C989        H992   1.086   1_565  S
C990        C993   1.443       .  S
C993        N995   1.156       .  T
C994        N996   1.157       .  T
C997        C998   1.398       .  A
C997       C1002   1.413       .  A
C998        C999   1.394       .  A
C998       H1003   1.081       .  S
C999       C1000   1.418       .  A
C999       C1006   1.445       .  S
C1000      C1001   1.406       .  A
C1001      C1002   1.409       .  A
C1001      H1004   1.084       .  S
C1002      C1005   1.443       .  S
C1005      N1007   1.157       .  T
C1006      N1008   1.157       .  T
C1009      C1010   1.409       .  A
C1009      C1014   1.413       .  A
C1010      C1011   1.401       .  A
C1010      H1015   1.085       .  S
C1011      C1012   1.412       .  A
C1011      C1018   1.444       .  S
C1012      C1013   1.407       .  A
C1013      C1014   1.398       .  A
C1013      H1016   1.085       .  S
C1014      C1017   1.445       .  S
C1017      N1019   1.157       .  T
C1018      N1020   1.157       .  T
C1021      C1022   1.396       .  A
C1021      C1026   1.405       .  A
C1022      C1023   1.398       .  A
C1022      H1027   1.083       .  S
C1023      C1024   1.418       .  A
C1023      C1030   1.444       .  S
C1024      C1025   1.408       .  A
C1025      C1026   1.394       .  A
C1025      H1028   1.085       .  S
C1026      C1029   1.446       .  S
C1029      N1031   1.157       .  T
C1030      N1032   1.157       .  T
C1033      C1034   1.401       .  A
C1033      C1038   1.413       .  A
C1034      C1035   1.397       .  A
C1034      H1039   1.073       .  S
C1035      C1036   1.415       .  A
C1035      C1042   1.445       .  S
C1036      C1037   1.409       .  A
C1037      C1038   1.411       .  A
C1037      H1040   1.084       .  S
C1038      C1041   1.443       .  S
C1041      N1043   1.157       .  T
C1042      N1044   1.157       .  T
C1045      C1046   1.415       .  A
C1045      C1050   1.405       .  A
C1046      C1047   1.401       .  A
C1046      H1051   1.083       .  S
C1047      C1048   1.405       .  A
C1047      C1054   1.444       .  S
C1048      C1049   1.416       .  A
C1049      C1050   1.403       .  A
C1049      H1052   1.083       .  S
C1050      C1053   1.443       .  S
C1053      N1055   1.157       .  T
C1054      N1056   1.157       .  T
C1057      C1058   1.401       .  A
C1057      C1062   1.410       .  A
C1058      C1059   1.396       .  A
C1058      H1063   1.086       .  S
C1059      C1060   1.407       .  A
C1059      C1066   1.443       .  S
C1060      C1061   1.399       .  A
C1061      C1062   1.397       .  A
C1061      H1064   1.085       .  S
C1062      C1065   1.444       .  S
C1065      N1067   1.157       .  T
C1066      N1068   1.157       .  T
C1069      C1070   1.408       .  A
C1069      C1074   1.408       .  A
C1070      C1071   1.405       .  A
C1070      H1075   1.084       .  S
C1071      C1072   1.408       .  A
C1071      C1078   1.444       .  S
C1072      C1073   1.410       .  A
C1073      C1074   1.409       .  A
C1073      H1076   1.084   1_556  S
C1074      C1077   1.442   1_556  S
C1077      N1079   1.157       .  T
C1078      N1080   1.157       .  T
C1081      C1082   1.401       .  A
C1081      C1086   1.409       .  A
C1082      C1083   1.392       .  A
C1082      H1087   1.085       .  S
C1083      C1084   1.406       .  A
C1083      C1090   1.444       .  S
C1084      C1085   1.401       .  A
C1085      C1086   1.398       .  A
C1085      H1088   1.085       .  S
C1086      C1089   1.444       .  S
C1089      N1091   1.157       .  T
C1090      N1092   1.157       .  T
C1093      C1094   1.411       .  A
C1093      C1098   1.414       .  A
C1094      C1095   1.401       .  A
C1094      H1099   1.084       .  S
C1095      C1096   1.410       .  A
C1095      C1102   1.444       .  S
C1096      C1097   1.408       .  A
C1097      C1098   1.400       .  A
C1097      H1100   1.085       .  S
C1098      C1101   1.444       .  S
C1101      N1103   1.157       .  T
C1102      N1104   1.157       .  T
C1105      C1106   1.413       .  A
C1105      C1110   1.407       .  A
C1106      C1107   1.407   1_545  A
C1106      H1111   1.085       .  S
C1107      C1108   1.405       .  A
C1107      C1114   1.441       .  S
C1108      C1109   1.406       .  A
C1109      C1110   1.398   1_565  A
C1109      H1112   1.082       .  S
C1110      C1113   1.445       .  S
C1113      N1115   1.158       .  T
C1114      N1116   1.157       .  T
C1117      C1118   1.409       .  A
C1117      C1122   1.405       .  A
C1118      C1119   1.416       .  A
C1118      H1123   1.082       .  S
C1119      C1120   1.414       .  A
C1119      C1126   1.441       .  S
C1120      C1121   1.413       .  A
C1121      C1122   1.398       .  A
C1121      H1124   1.084       .  S
C1122      C1125   1.445       .  S
C1125      N1127   1.157   1_655  T
C1126      N1128   1.157       .  T
C1129      C1130   1.405       .  A
C1129      C1134   1.412       .  A
C1130      C1131   1.405   1_554  A
C1130      H1135   1.085       .  S
C1131      C1132   1.415       .  A
C1131      C1138   1.442       .  S
C1132      C1133   1.406       .  A
C1133      C1134   1.396   1_556  A
C1133      H1136   1.085       .  S
C1134      C1137   1.444       .  S
C1137      N1139   1.157       .  T
C1138      N1140   1.157       .  T
C1141      C1142   1.409       .  A
C1141      C1146   1.409       .  A
C1142      C1143   1.403       .  A
C1142      H1147   1.084       .  S
C1143      C1144   1.406       .  A
C1143      C1150   1.439       .  S
C1144      C1145   1.410       .  A
C1145      C1146   1.409       .  A
C1145      H1148   1.082       .  S
C1146      C1149   1.443       .  S
C1149      N1151   1.157       .  T
C1150      N1152   1.157       .  T
C1153      C1154   1.402       .  A
C1153      C1158   1.406       .  A
C1154      C1155   1.391       .  A
C1154      H1159   1.086       .  S
C1155      C1156   1.409       .  A
C1155      C1162   1.444       .  S
C1156      C1157   1.404       .  A
C1157      C1158   1.397       .  A
C1157      H1160   1.085       .  S
C1158      C1161   1.439       .  S
C1161      N1163   1.155       .  T
C1162      N1164   1.157       .  T
C1165      C1166   1.411       .  A
C1165      C1170   1.411       .  A
C1166      C1167   1.408       .  A
C1166      H1171   1.084       .  S
C1167      C1168   1.406       .  A
C1167      C1174   1.439       .  S
C1168      C1169   1.408       .  A
C1169      C1170   1.408       .  A
C1169      H1172   1.082       .  S
C1170      C1173   1.443       .  S
C1173      N1175   1.157       .  T
C1174      N1176   1.157       .  T
C1177      C1178   1.411       .  A
C1177      C1182   1.414       .  A
C1178      C1179   1.424       .  A
C1178      H1183   1.082       .  S
C1179      C1180   1.419       .  A
C1179      C1186   1.442       .  S
C1180      C1181   1.411       .  A
C1181      C1182   1.402       .  A
C1181      H1184   1.085       .  S
C1182      C1185   1.446       .  S
C1185      N1187   1.157       .  T
C1186      N1188   1.157       .  T
C1189      C1190   1.403       .  A
C1189      C1194   1.416       .  A
C1190      C1191   1.388       .  A
C1190      H1195   1.085       .  S
C1191      C1192   1.407       .  A
C1191      C1198   1.446       .  S
C1192      C1193   1.400       .  A
C1193      C1194   1.402       .  A
C1193      H1196   1.082       .  S
C1194      C1197   1.444       .  S
C1197      N1199   1.157       .  T
C1198      N1200   1.157       .  T
C1201      C1202   1.411       .  A
C1201      C1206   1.415       .  A
C1202      C1203   1.403       .  A
C1202      H1207   1.085       .  S
C1203      C1204   1.414       .  A
C1203      C1210   1.445       .  S
C1204      C1205   1.408       .  A
C1205      C1206   1.404       .  A
C1205      H1208   1.085       .  S
C1206      C1209   1.443       .  S
C1209      N1211   1.157       .  T
C1210      N1212   1.158       .  T
C1213      C1214   1.412       .  A
C1213      C1218   1.403       .  A
C1214      C1215   1.417       .  A
C1214      H1219   1.084       .  S
C1215      C1216   1.410   1_565  A
C1215      C1222   1.440       .  S
C1216      C1217   1.408   1_545  A
C1217      C1218   1.397       .  A
C1217      H1220   1.077   1_565  S
C1218      C1221   1.446       .  S
C1221      N1223   1.157       .  T
C1222      N1224   1.157   1_565  T
C1225      C1226   1.401       .  A
C1225      C1230   1.407       .  A
C1226      C1227   1.397   1_554  A
C1226      H1231   1.086       .  S
C1227      C1228   1.414       .  A
C1227      C1234   1.445       .  S
C1228      C1229   1.404   1_556  A
C1229      C1230   1.400       .  A
C1229      H1232   1.085       .  S
C1230      C1233   1.443       .  S
C1233      N1235   1.157       .  T
C1234      N1236   1.158       .  T
C1237      C1238   1.412       .  A
C1237      C1242   1.411       .  A
C1238      C1239   1.403       .  A
C1238      H1243   1.085       .  S
C1239      C1240   1.406       .  A
C1239      C1246   1.444       .  S
C1240      C1241   1.409       .  A
C1241      C1242   1.409       .  A
C1241      H1244   1.084       .  S
C1242      C1245   1.443       .  S
C1245      N1247   1.157       .  T
C1246      N1248   1.157   1_554  T
C1249      C1250   1.412       .  A
C1249      C1254   1.404       .  A
C1250      C1251   1.406       .  A
C1250      H1255   1.084       .  S
C1251      C1252   1.407       .  A
C1251      C1258   1.443       .  S
C1252      C1253   1.414       .  A
C1253      C1254   1.401       .  A
C1253      H1256   1.083       .  S
C1254      C1257   1.443       .  S
C1257      N1259   1.157       .  T
C1258      N1260   1.157       .  T
C1261      C1262   1.401   1_455  A
C1261      C1266   1.420   1_455  A
C1262      C1263   1.405       .  A
C1262      H1267   1.085   1_655  S
C1263      C1264   1.421   1_554  A
C1263      C1270   1.445       .  S
C1264      C1265   1.398       .  A
C1265      C1266   1.397   1_556  A
C1265      H1268   1.085       .  S
C1266      C1269   1.444       .  S
C1269      N1271   1.157   1_655  T
C1270      N1272   1.157       .  T
C1273      C1274   1.401       .  A
C1273      C1278   1.411       .  A
C1274      C1275   1.405       .  A
C1274      H1279   1.083       .  S
C1275      C1276   1.418       .  A
C1275      C1282   1.444       .  S
C1276      C1277   1.400       .  A
C1277      C1278   1.388       .  A
C1277      H1280   1.086       .  S
C1278      C1281   1.443       .  S
C1281      N1283   1.156       .  T
C1282      N1284   1.157       .  T
C1285      C1286   1.396       .  A
C1285      C1290   1.415       .  A
C1286      C1287   1.396       .  A
C1286      H1291   1.083       .  S
C1287      C1288   1.415       .  A
C1287      C1294   1.442       .  S
C1288      C1289   1.402       .  A
C1289      C1290   1.405       .  A
C1289      H1292   1.085       .  S
C1290      C1293   1.444       .  S
C1293      N1295   1.157       .  T
C1294      N1296   1.156   1_655  T
C1297      C1298   1.408       .  A
C1297      C1302   1.404       .  A
C1298      C1299   1.403       .  A
C1298      H1303   1.085       .  S
C1299      C1300   1.413       .  A
C1299      C1306   1.443       .  S
C1300      C1301   1.417       .  A
C1301      C1302   1.404       .  A
C1301      H1304   1.084       .  S
C1302      C1305   1.444       .  S
C1305      N1307   1.157       .  T
C1306      N1308   1.157       .  T
C1309      C1310   1.396       .  A
C1309      C1314   1.405       .  A
C1310      C1311   1.391       .  A
C1310      H1315   1.086       .  S
C1311      C1312   1.421   1_565  A
C1311      C1318   1.446       .  S
C1312      C1313   1.409       .  A
C1313      C1314   1.403   1_545  A
C1313      H1316   1.084       .  S
C1314      C1317   1.441   1_565  S
C1317      N1319   1.156       .  T
C1318      N1320   1.158       .  T
C1321      C1322   1.410       .  A
C1321      C1326   1.410   1_545  A
C1322      C1323   1.399   1_545  A
C1322      H1327   1.085       .  S
C1323      C1324   1.411       .  A
C1323      C1330   1.444       .  S
C1324      C1325   1.412       .  A
C1325      C1326   1.401       .  A
C1325      H1328   1.084       .  S
C1326      C1329   1.445       .  S
C1329      N1331   1.157       .  T
C1330      N1332   1.157       .  T
C1333      C1334   1.397       .  A
C1333      C1338   1.417       .  A
C1334      C1335   1.406       .  A
C1334      H1339   1.084       .  S
C1335      C1336   1.420       .  A
C1335      C1342   1.440       .  S
C1336      C1337   1.399       .  A
C1337      C1338   1.399       .  A
C1337      H1340   1.085       .  S
C1338      C1341   1.444       .  S
C1341      N1343   1.157       .  T
C1342      N1344   1.156       .  T
C1345      C1346   1.417       .  A
C1345      C1350   1.413       .  A
C1346      C1347   1.394   1_545  A
C1346      H1351   1.084       .  S
C1347      C1348   1.402   1_565  A
C1347      C1354   1.447       .  S
C1348      C1349   1.409       .  A
C1349      C1350   1.411       .  A
C1349      H1352   1.085       .  S
C1350      C1353   1.442       .  S
C1353      N1355   1.157       .  T
C1354      N1356   1.157       .  T
C1357      C1358   1.401       .  A
C1357      C1362   1.414       .  A
C1358      C1359   1.404       .  A
C1358      H1363   1.084       .  S
C1359      C1360   1.419       .  A
C1359      C1366   1.443       .  S
C1360      C1361   1.399       .  A
C1361      C1362   1.390       .  A
C1361      H1364   1.085       .  S
C1362      C1365   1.444       .  S
C1365      N1367   1.156       .  T
C1366      N1368   1.157       .  T
C1369      C1370   1.409       .  A
C1369      C1374   1.411       .  A
C1370      C1371   1.400       .  A
C1370      H1375   1.084       .  S
C1371      C1372   1.403       .  A
C1371      C1378   1.444       .  S
C1372      C1373   1.404       .  A
C1373      C1374   1.403       .  A
C1373      H1376   1.085       .  S
C1374      C1377   1.443       .  S
C1377      N1379   1.157       .  T
C1378      N1380   1.157       .  T
C1381      C1382   1.414       .  A
C1381      C1386   1.421       .  A
C1382      C1383   1.420       .  A
C1382      H1387   1.084       .  S
C1383      C1384   1.414       .  A
C1383      C1390   1.442       .  S
C1384      C1385   1.405       .  A
C1385      C1386   1.399       .  A
C1385      H1388   1.087       .  S
C1386      C1389   1.445       .  S
C1389      N1391   1.157       .  T
C1390      N1392   1.157       .  T
C1393      C1394   1.400       .  A
C1393      C1398   1.409       .  A
C1394      C1395   1.403       .  A
C1394      H1399   1.083       .  S
C1395      C1396   1.418       .  A
C1395      C1402   1.444       .  S
C1396      C1397   1.407       .  A
C1397      C1398   1.395       .  A
C1397      H1400   1.084       .  S
C1398      C1401   1.446       .  S
C1401      N1403   1.157       .  T
C1402      N1404   1.157       .  T
C1405      C1406   1.401       .  A
C1405      C1410   1.409       .  A
C1406      C1407   1.399       .  A
C1406      H1411   1.085       .  S
C1407      C1408   1.407       .  A
C1407      C1414   1.441       .  S
C1408      C1409   1.403       .  A
C1409      C1410   1.399       .  A
C1409      H1412   1.085       .  S
C1410      C1413   1.444       .  S
C1413      N1415   1.157       .  T
C1414      N1416   1.156       .  T
C1417      C1418   1.402       .  A
C1417      C1422   1.421       .  A
C1418      C1419   1.401   1_455  A
C1418      H1423   1.085       .  S
C1419      C1420   1.415       .  A
C1419      C1426   1.445       .  S
C1420      C1421   1.397       .  A
C1421      C1422   1.406   1_655  A
C1421      H1424   1.084       .  S
C1422      C1425   1.441       .  S
C1425      N1427   1.156       .  T
C1426      N1428   1.157       .  T
C1429      C1430   1.403       .  A
C1429      C1434   1.417       .  A
C1430      C1431   1.404       .  A
C1430      H1435   1.084       .  S
C1431      C1432   1.413       .  A
C1431      C1438   1.444       .  S
C1432      C1433   1.398       .  A
C1433      C1434   1.398       .  A
C1433      H1436   1.086       .  S
C1434      C1437   1.443       .  S
C1437      N1439   1.156   1_565  T
C1438      N1440   1.157       .  T
C1441      C1442   1.412       .  A
C1441      C1446   1.405       .  A
C1442      C1443   1.407       .  A
C1442      H1447   1.081       .  S
C1443      C1444   1.408       .  A
C1443      C1450   1.443       .  S
C1444      C1445   1.416       .  A
C1445      C1446   1.404       .  A
C1445      H1448   1.083       .  S
C1446      C1449   1.444       .  S
C1449      N1451   1.157       .  T
C1450      N1452   1.157       .  T
C1453      C1454   1.406       .  A
C1453      C1458   1.411   1_556  A
C1454      C1455   1.406   1_556  A
C1454      H1459   1.080       .  S
C1455      C1456   1.409       .  A
C1455      C1462   1.443       .  S
C1456      C1457   1.400       .  A
C1457      C1458   1.389       .  A
C1457      H1460   1.086       .  S
C1458      C1461   1.444   1_655  S
C1461      N1463   1.156       .  T
C1462      N1464   1.157       .  T
C1465      C1466   1.402       .  A
C1465      C1470   1.410       .  A
C1466      C1467   1.393   1_554  A
C1466      H1471   1.086       .  S
C1467      C1468   1.419       .  A
C1467      C1474   1.446       .  S
C1468      C1469   1.410       .  A
C1469      C1470   1.408   1_556  A
C1469      H1472   1.084       .  S
C1470      C1473   1.441       .  S
C1473      N1475   1.157       .  T
C1474      N1476   1.158       .  T
C1477      C1478   1.400       .  A
C1477      C1482   1.413       .  A
C1478      C1479   1.405       .  A
C1478      H1483   1.084       .  S
C1479      C1480   1.414       .  A
C1479      C1486   1.437       .  S
C1480      C1481   1.401       .  A
C1481      C1482   1.407       .  A
C1481      H1484   1.084       .  S
C1482      C1485   1.442       .  S
C1485      N1487   1.157       .  T
C1486      N1488   1.155       .  T
C1489      C1490   1.412       .  A
C1489      C1494   1.410       .  A
C1490      C1491   1.411       .  A
C1490      H1495   1.085       .  S
C1491      C1492   1.409       .  A
C1491      C1498   1.442       .  S
C1492      C1493   1.407       .  A
C1493      C1494   1.403       .  A
C1493      H1496   1.084       .  S
C1494      C1497   1.444       .  S
C1497      N1499   1.157       .  T
C1498      N1500   1.157       .  T
C1501      C1502   1.399       .  A
C1501      C1506   1.405       .  A
C1502      C1503   1.399       .  A
C1502      H1507   1.086       .  S
C1503      C1504   1.421       .  A
C1503      C1510   1.443       .  S
C1504      C1505   1.407       .  A
C1505      C1506   1.397       .  A
C1505      H1508   1.085       .  S
C1506      C1509   1.439       .  S
C1509      N1511   1.155       .  T
C1510      N1512   1.157       .  T
C1513      C1514   1.403       .  A
C1513      C1518   1.416       .  A
C1514      C1515   1.393       .  A
C1514      H1519   1.085       .  S
C1515      C1516   1.415       .  A
C1515      C1522   1.447       .  S
C1516      C1517   1.401       .  A
C1517      C1518   1.404       .  A
C1517      H1520   1.085       .  S
C1518      C1521   1.443       .  S
C1521      N1523   1.157       .  T
C1522      N1524   1.157       .  T
C1525      C1526   1.399       .  A
C1525      C1530   1.412       .  A
C1526      C1527   1.404       .  A
C1526      H1531   1.085       .  S
C1527      C1528   1.413       .  A
C1527      C1534   1.435       .  S
C1528      C1529   1.402       .  A
C1529      C1530   1.406       .  A
C1529      H1532   1.084       .  S
C1530      C1533   1.444       .  S
C1533      N1535   1.157       .  T
C1534      N1536   1.154       .  T
C1537      C1538   1.414       .  A
C1537      C1542   1.418       .  A
C1538      C1539   1.412       .  A
C1538      H1543   1.084       .  S
C1539      C1540   1.411       .  A
C1539      C1546   1.443       .  S
C1540      C1541   1.408       .  A
C1541      C1542   1.401       .  A
C1541      H1544   1.085       .  S
C1542      C1545   1.445       .  S
C1545      N1547   1.158       .  T
C1546      N1548   1.157       .  T
C1549      C1550   1.410       .  A
C1549      C1554   1.408       .  A
C1550      C1551   1.409       .  A
C1550      H1555   1.082       .  S
C1551      C1552   1.412       .  A
C1551      C1558   1.445       .  S
C1552      C1553   1.413       .  A
C1553      C1554   1.413       .  A
C1553      H1556   1.085       .  S
C1554      C1557   1.442       .  S
C1557      N1559   1.157       .  T
C1558      N1560   1.158       .  T
C1561      C1562   1.415       .  A
C1561      C1566   1.414       .  A
C1562      C1563   1.404       .  A
C1562      H1567   1.082       .  S
C1563      C1564   1.405   1_655  A
C1563      C1570   1.445   1_655  S
C1564      C1565   1.414       .  A
C1565      C1566   1.421   1_455  A
C1565      H1568   1.084       .  S
C1566      C1569   1.441       .  S
C1569      N1571   1.157       .  T
C1570      N1572   1.157       .  T
C1573      C1574   1.413       .  A
C1573      C1578   1.419       .  A
C1574      C1575   1.403       .  A
C1574      H1579   1.084       .  S
C1575      C1576   1.405       .  A
C1575      C1582   1.443       .  S
C1576      C1577   1.398       .  A
C1577      C1578   1.396       .  A
C1577      H1580   1.087       .  S
C1578      C1581   1.443       .  S
C1581      N1583   1.157       .  T
C1582      N1584   1.157       .  T
C1585      C1586   1.399       .  A
C1585      C1590   1.410       .  A
C1586      C1587   1.387       .  A
C1586      H1591   1.086       .  S
C1587      C1588   1.408       .  A
C1587      C1594   1.443       .  S
C1588      C1589   1.404       .  A
C1589      C1590   1.403       .  A
C1589      H1592   1.085       .  S
C1590      C1593   1.443       .  S
C1593      N1595   1.157       .  T
C1594      N1596   1.156       .  T
C1597      C1598   1.398       .  A
C1597      C1602   1.412       .  A
C1598      C1599   1.397       .  A
C1598      H1603   1.081       .  S
C1599      C1600   1.416       .  A
C1599      C1606   1.445       .  S
C1600      C1601   1.405       .  A
C1601      C1602   1.406       .  A
C1601      H1604   1.084       .  S
C1602      C1605   1.443       .  S
C1605      N1607   1.157       .  T
C1606      N1608   1.157       .  T
C1609      C1610   1.408       .  A
C1609      C1614   1.403       .  A
C1610      C1611   1.412       .  A
C1610      H1615   1.084       .  S
C1611      C1612   1.409       .  A
C1611      C1618   1.439       .  S
C1612      C1613   1.409       .  A
C1613      C1614   1.402       .  A
C1613      H1616   1.081       .  S
C1614      C1617   1.443       .  S
C1617      N1619   1.157       .  T
C1618      N1620   1.156       .  T
C1621      C1622   1.400       .  A
C1621      C1626   1.407       .  A
C1622      C1623   1.395       .  A
C1622      H1627   1.086       .  S
C1623      C1624   1.410       .  A
C1623      C1630   1.442       .  S
C1624      C1625   1.405       .  A
C1625      C1626   1.400       .  A
C1625      H1628   1.085       .  S
C1626      C1629   1.444       .  S
C1629      N1631   1.157       .  T
C1630      N1632   1.156       .  T
C1633      C1634   1.410       .  A
C1633      C1638   1.418       .  A
C1634      C1635   1.395       .  A
C1634      H1639   1.084       .  S
C1635      C1636   1.401       .  A
C1635      C1642   1.444       .  S
C1636      C1637   1.395       .  A
C1637      C1638   1.396       .  A
C1637      H1640   1.081       .  S
C1638      C1641   1.445       .  S
C1641      N1643   1.157       .  T
C1642      N1644   1.157       .  T
C1645      C1646   1.404       .  A
C1645      C1650   1.404       .  A
C1646      C1647   1.405       .  A
C1646      H1651   1.083       .  S
C1647      C1648   1.407   1_655  A
C1647      C1654   1.438   1_655  S
C1648      C1649   1.409   1_455  A
C1649      C1650   1.403       .  A
C1649      H1652   1.080   1_655  S
C1650      C1653   1.444       .  S
C1653      N1655   1.157       .  T
C1654      N1656   1.156       .  T
C1657      C1658   1.407       .  A
C1657      C1662   1.424       .  A
C1658      C1659   1.413       .  A
C1658      H1663   1.084       .  S
C1659      C1660   1.424       .  A
C1659      C1666   1.444       .  S
C1660      C1661   1.403       .  A
C1661      C1662   1.405       .  A
C1661      H1664   1.085       .  S
C1662      C1665   1.445       .  S
C1665      N1667   1.157       .  T
C1666      N1668   1.157       .  T
C1669      C1670   1.401       .  A
C1669      C1674   1.416       .  A
C1670      C1671   1.411   1_565  A
C1670      H1675   1.084       .  S
C1671      C1672   1.417       .  A
C1671      C1678   1.439       .  S
C1672      C1673   1.401       .  A
C1673      C1674   1.403   1_545  A
C1673      H1676   1.084       .  S
C1674      C1677   1.445       .  S
C1677      N1679   1.157       .  T
C1678      N1680   1.156       .  T
C1681      C1682   1.412       .  A
C1681      C1686   1.400       .  A
C1682      C1683   1.406       .  A
C1682      H1687   1.082       .  S
C1683      C1684   1.408       .  A
C1683      C1690   1.443       .  S
C1684      C1685   1.418       .  A
C1685      C1686   1.401       .  A
C1685      H1688   1.081       .  S
C1686      C1689   1.444       .  S
C1689      N1691   1.157       .  T
C1690      N1692   1.157       .  T
C1693      C1694   1.405       .  A
C1693      C1698   1.419       .  A
C1694      C1695   1.402       .  A
C1694      H1699   1.085       .  S
C1695      C1696   1.412       .  A
C1695      C1702   1.443       .  S
C1696      C1697   1.400       .  A
C1697      C1698   1.399       .  A
C1697      H1700   1.086       .  S
C1698      C1701   1.445       .  S
C1701      N1703   1.157       .  T
C1702      N1704   1.157       .  T
C1705      C1706   1.401   1_455  A
C1705      C1710   1.408       .  A
C1706      C1707   1.386   1_655  A
C1706      H1711   1.086       .  S
C1707      C1708   1.416       .  A
C1707      C1714   1.446       .  S
C1708      C1709   1.411       .  A
C1709      C1710   1.406       .  A
C1709      H1712   1.084       .  S
C1710      C1713   1.441       .  S
C1713      N1715   1.157       .  T
C1714      N1716   1.157       .  T
C1717      C1718   1.407       .  A
C1717      C1722   1.403       .  A
C1718      C1719   1.405       .  A
C1718      H1723   1.084       .  S
C1719      C1720   1.409       .  A
C1719      C1726   1.444       .  S
C1720      C1721   1.409       .  A
C1721      C1722   1.402       .  A
C1721      H1724   1.083   1_556  S
C1722      C1725   1.442   1_556  S
C1725      N1727   1.157       .  T
C1726      N1728   1.157       .  T
C1729      C1730   1.407       .  A
C1729      C1734   1.426       .  A
C1730      C1731   1.408   1_565  A
C1730      H1735   1.084   1_565  S
C1731      C1732   1.416   1_554  A
C1731      C1738   1.444       .  S
C1732      C1733   1.400   1_545  A
C1733      C1734   1.407   1_556  A
C1733      H1736   1.085       .  S
C1734      C1737   1.444   1_554  S
C1737      N1739   1.157       .  T
C1738      N1740   1.157       .  T
C1741      C1742   1.409       .  A
C1741      C1746   1.410       .  A
C1742      C1743   1.405   1_556  A
C1742      H1747   1.083   1_556  S
C1743      C1744   1.406   1_554  A
C1743      C1750   1.443       .  S
C1744      C1745   1.407       .  A
C1745      C1746   1.406       .  A
C1745      H1748   1.085       .  S
C1746      C1749   1.443       .  S
C1749      N1751   1.157       .  T
C1750      N1752   1.157       .  T
C1753      C1754   1.405       .  A
C1753      C1758   1.415       .  A
C1754      C1755   1.397       .  A
C1754      H1759   1.085       .  S
C1755      C1756   1.406       .  A
C1755      C1762   1.443       .  S
C1756      C1757   1.400       .  A
C1757      C1758   1.397       .  A
C1757      H1760   1.086       .  S
C1758      C1761   1.445       .  S
C1761      N1763   1.158       .  T
C1762      N1764   1.157       .  T
C1765      C1766   1.402       .  A
C1765      C1770   1.406       .  A
C1766      C1767   1.398       .  A
C1766      H1771   1.085       .  S
C1767      C1768   1.408       .  A
C1767      C1774   1.443       .  S
C1768      C1769   1.403       .  A
C1769      C1770   1.398       .  A
C1769      H1772   1.085       .  S
C1770      C1773   1.443       .  S
C1773      N1775   1.157       .  T
C1774      N1776   1.157       .  T
C1777      C1778   1.406       .  A
C1777      C1782   1.422       .  A
C1778      C1779   1.405   1_655  A
C1778      H1783   1.084       .  S
C1779      C1780   1.410       .  A
C1779      C1786   1.442       .  S
C1780      C1781   1.398   1_455  A
C1781      C1782   1.406       .  A
C1781      H1784   1.084   1_655  S
C1782      C1785   1.443       .  S
C1785      N1787   1.157       .  T
C1786      N1788   1.157       .  T
C1789      C1790   1.403       .  A
C1789      C1794   1.414       .  A
C1790      C1791   1.406       .  A
C1790      H1795   1.084       .  S
C1791      C1792   1.409       .  A
C1791      C1798   1.444       .  S
C1792      C1793   1.397       .  A
C1793      C1794   1.399       .  A
C1793      H1796   1.085       .  S
C1794      C1797   1.439   1_545  S
C1797      N1799   1.155       .  T
C1798      N1800   1.157       .  T
C1801      C1802   1.415       .  A
C1801      C1806   1.412       .  A
C1802      C1803   1.404       .  A
C1802      H1807   1.083       .  S
C1803      C1804   1.404       .  A
C1803      C1810   1.444       .  S
C1804      C1805   1.412       .  A
C1805      C1806   1.414       .  A
C1805      H1808   1.083       .  S
C1806      C1809   1.441       .  S
C1809      N1811   1.157       .  T
C1810      N1812   1.157   1_545  T
C1813      C1814   1.403   1_566  A
C1813      C1818   1.415   1_556  A
C1814      C1815   1.403       .  A
C1814      H1819   1.084   1_554  S
C1815      C1816   1.417       .  A
C1815      C1822   1.444       .  S
C1816      C1817   1.402       .  A
C1817      C1818   1.390   1_545  A
C1817      H1820   1.085       .  S
C1818      C1821   1.446   1_554  S
C1821      N1823   1.157       .  T
C1822      N1824   1.157       .  T
C1825      C1826   1.408       .  A
C1825      C1830   1.418       .  A
C1826      C1827   1.396   1_455  A
C1826      H1831   1.085   1_455  S
C1827      C1828   1.406   1_556  A
C1827      C1834   1.445       .  S
C1828      C1829   1.397   1_655  A
C1829      C1830   1.399   1_554  A
C1829      H1832   1.083       .  S
C1830      C1833   1.444       .  S
C1833      N1835   1.157       .  T
C1834      N1836   1.157   1_556  T
C1837      C1838   1.413       .  A
C1837      C1842   1.406       .  A
C1838      C1839   1.403       .  A
C1838      H1843   1.083       .  S
C1839      C1840   1.404       .  A
C1839      C1846   1.444       .  S
C1840      C1841   1.409       .  A
C1841      C1842   1.409       .  A
C1841      H1844   1.080       .  S
C1842      C1845   1.441       .  S
C1845      N1847   1.157       .  T
C1846      N1848   1.157       .  T
C1849      C1850   1.416       .  A
C1849      C1854   1.413       .  A
C1850      C1851   1.411       .  A
C1850      H1855   1.084       .  S
C1851      C1852   1.411       .  A
C1851      C1858   1.443       .  S
C1852      C1853   1.410       .  A
C1853      C1854   1.400       .  A
C1853      H1856   1.085       .  S
C1854      C1857   1.444       .  S
C1857      N1859   1.157       .  T
C1858      N1860   1.157       .  T
C1861      C1862   1.404       .  A
C1861      C1866   1.406       .  A
C1862      C1863   1.404       .  A
C1862      H1867   1.078       .  S
C1863      C1864   1.406       .  A
C1863      C1870   1.443       .  S
C1864      C1865   1.412       .  A
C1865      C1866   1.403       .  A
C1865      H1868   1.085       .  S
C1866      C1869   1.443       .  S
C1869      N1871   1.157       .  T
C1870      N1872   1.157       .  T
C1873      C1874   1.400       .  A
C1873      C1878   1.405       .  A
C1874      C1875   1.391       .  A
C1874      H1879   1.085       .  S
C1875      C1876   1.409       .  A
C1875      C1882   1.445       .  S
C1876      C1877   1.404       .  A
C1877      C1878   1.401       .  A
C1877      H1880   1.085       .  S
C1878      C1881   1.441       .  S
C1881      N1883   1.157       .  T
C1882      N1884   1.157       .  T
C1885      C1886   1.404       .  A
C1885      C1890   1.418       .  A
C1886      C1887   1.392       .  A
C1886      H1891   1.085       .  S
C1887      C1888   1.409       .  A
C1887      C1894   1.444       .  S
C1888      C1889   1.404       .  A
C1889      C1890   1.410       .  A
C1889      H1892   1.085       .  S
C1890      C1893   1.443       .  S
C1893      N1895   1.157       .  T
C1894      N1896   1.157       .  T
C1897      C1898   1.399       .  A
C1897      C1902   1.413       .  A
C1898      C1899   1.403       .  A
C1898      H1903   1.080       .  S
C1899      C1900   1.413       .  A
C1899      C1906   1.442       .  S
C1900      C1901   1.400       .  A
C1901      C1902   1.407       .  A
C1901      H1904   1.084       .  S
C1902      C1905   1.441       .  S
C1905      N1907   1.157       .  T
C1906      N1908   1.157       .  T
C1909      C1910   1.401       .  A
C1909      C1914   1.419       .  A
C1910      C1911   1.410       .  A
C1910      H1915   1.084       .  S
C1911      C1912   1.419       .  A
C1911      C1918   1.441       .  S
C1912      C1913   1.399       .  A
C1913      C1914   1.403       .  A
C1913      H1916   1.085       .  S
C1914      C1917   1.445       .  S
C1917      N1919   1.157       .  T
C1918      N1920   1.156       .  T
C1921      C1922   1.407       .  A
C1921      C1926   1.412       .  A
C1922      C1923   1.390   1_455  A
C1922      H1927   1.086       .  S
C1923      C1924   1.411       .  A
C1923      C1930   1.448       .  S
C1924      C1925   1.411       .  A
C1925      C1926   1.418   1_655  A
C1925      H1928   1.084       .  S
C1926      C1929   1.440       .  S
C1929      N1931   1.157       .  T
C1930      N1932   1.157       .  T
C1933      C1934   1.398       .  A
C1933      C1938   1.408       .  A
C1934      C1935   1.390       .  A
C1934      H1939   1.086       .  S
C1935      C1936   1.418       .  A
C1935      C1942   1.446       .  S
C1936      C1937   1.411       .  A
C1937      C1938   1.410       .  A
C1937      H1940   1.084       .  S
C1938      C1941   1.439       .  S
C1941      N1943   1.156       .  T
C1942      N1944   1.157       .  T
C1945      C1946   1.406       .  A
C1945      C1950   1.415       .  A
C1946      C1947   1.395       .  A
C1946      H1951   1.085       .  S
C1947      C1948   1.405       .  A
C1947      C1954   1.437       .  S
C1948      C1949   1.403       .  A
C1949      C1950   1.397       .  A
C1949      H1952   1.086       .  S
C1950      C1953   1.445       .  S
C1953      N1955   1.157       .  T
C1954      N1956   1.154       .  T
C1957      C1958   1.410       .  A
C1957      C1962   1.409       .  A
C1958      C1959   1.409   1_455  A
C1958      H1963   1.085       .  S
C1959      C1960   1.410       .  A
C1959      C1966   1.439       .  S
C1960      C1961   1.407       .  A
C1961      C1962   1.402   1_655  A
C1961      H1964   1.082       .  S
C1962      C1965   1.444       .  S
C1965      N1967   1.157       .  T
C1966      N1968   1.156       .  T
C1969      C1970   1.413       .  A
C1969      C1974   1.414       .  A
C1970      C1971   1.406       .  A
C1970      H1975   1.084       .  S
C1971      C1972   1.414       .  A
C1971      C1978   1.444       .  S
C1972      C1973   1.414       .  A
C1973      C1974   1.408       .  A
C1973      H1976   1.084       .  S
C1974      C1977   1.444       .  S
C1977      N1979   1.157       .  T
C1978      N1980   1.157       .  T
C1981      C1982   1.399   1_545  A
C1981      C1986   1.413   1_545  A
C1982      C1983   1.406       .  A
C1982      H1987   1.080       .  S
C1983      C1984   1.420       .  A
C1983      C1990   1.442       .  S
C1984      C1985   1.405       .  A
C1985      C1986   1.409       .  A
C1985      H1988   1.084       .  S
C1986      C1989   1.441   1_565  S
C1989      N1991   1.157       .  T
C1990      N1992   1.157       .  T
C1993      C1994   1.405       .  A
C1993      C1998   1.416       .  A
C1994      C1995   1.391       .  A
C1994      H1999   1.086       .  S
C1995      C1996   1.405       .  A
C1995      C2002   1.446   1_655  S
C1996      C1997   1.399       .  A
C1997      C1998   1.400       .  A
C1997      H2000   1.085       .  S
C1998      C2001   1.444       .  S
C2001      N2003   1.158       .  T
C2002      N2004   1.157       .  T
C2005      C2006   1.401       .  A
C2005      C2010   1.412       .  A
C2006      C2007   1.398       .  A
C2006      H2011   1.085       .  S
C2007      C2008   1.412       .  A
C2007      C2014   1.443       .  S
C2008      C2009   1.402       .  A
C2009      C2010   1.403       .  A
C2009      H2012   1.085       .  S
C2010      C2013   1.441       .  S
C2013      N2015   1.156       .  T
C2014      N2016   1.157       .  T
C2017      C2018   1.408       .  A
C2017      C2022   1.407       .  A
C2018      C2019   1.406       .  A
C2018      H2023   1.085       .  S
C2019      C2020   1.408       .  A
C2019      C2026   1.443       .  S
C2020      C2021   1.410       .  A
C2021      C2022   1.407       .  A
C2021      H2024   1.085       .  S
C2022      C2025   1.444       .  S
C2025      N2027   1.157       .  T
C2026      N2028   1.157       .  T
C2029      C2030   1.414       .  A
C2029      C2034   1.410       .  A
C2030      C2031   1.409       .  A
C2030      H2035   1.084       .  S
C2031      C2032   1.406       .  A
C2031      C2038   1.440       .  S
C2032      C2033   1.407       .  A
C2033      C2034   1.401       .  A
C2033      H2036   1.080       .  S
C2034      C2037   1.445       .  S
C2037      N2039   1.157       .  T
C2038      N2040   1.157       .  T
C2041      C2042   1.414       .  A
C2041      C2046   1.416       .  A
C2042      C2043   1.394       .  A
C2042      H2047   1.084       .  S
C2043      C2044   1.406       .  A
C2043      C2050   1.447       .  S
C2044      C2045   1.410       .  A
C2045      C2046   1.416       .  A
C2045      H2048   1.084       .  S
C2046      C2049   1.442       .  S
C2049      N2051   1.157       .  T
C2050      N2052   1.157       .  T
C2053      C2054   1.403       .  A
C2053      C2058   1.415       .  A
C2054      C2055   1.400       .  A
C2054      H2059   1.085       .  S
C2055      C2056   1.417       .  A
C2055      C2062   1.444       .  S
C2056      C2057   1.406       .  A
C2057      C2058   1.399       .  A
C2057      H2060   1.085       .  S
C2058      C2061   1.445       .  S
C2061      N2063   1.157       .  T
C2062      N2064   1.157       .  T
C2065      C2066   1.406       .  A
C2065      C2070   1.418       .  A
C2066      C2067   1.390       .  A
C2066      H2071   1.085       .  S
C2067      C2068   1.405       .  A
C2067      C2074   1.445       .  S
C2068      C2069   1.397       .  A
C2069      C2070   1.399       .  A
C2069      H2072   1.083       .  S
C2070      C2073   1.444       .  S
C2073      N2075   1.157       .  T
C2074      N2076   1.157       .  T
C2077      C2078   1.402       .  A
C2077      C2082   1.411       .  A
C2078      C2079   1.395       .  A
C2078      H2083   1.086       .  S
C2079      C2080   1.406       .  A
C2079      C2086   1.444       .  S
C2080      C2081   1.402       .  A
C2081      C2082   1.402       .  A
C2081      H2084   1.085       .  S
C2082      C2085   1.443       .  S
C2085      N2087   1.157       .  T
C2086      N2088   1.157       .  T
