geometry optimzed in LAMMPS
_audit_creation_date              2020-12-01 
_audit_creation_method            'lammps2cif' 
_symmetry_space_group_name_H-M    'P1' 
_symmetry_Int_Tables_number       1 
_symmetry_cell_setting            triclinic 
loop_ 
_symmetry_equiv_pos_as_xyz 
  x,y,z 
_cell_length_a                    52.4264083 
_cell_length_b                    51.70029013045283 
_cell_length_c                    38.2376367709991 
_cell_angle_alpha                 89.74317500639602 
_cell_angle_beta                  90.12239291034402 
_cell_angle_gamma                 89.64641553777406 
loop_ 
_atom_site_label 
_atom_site_type_symbol 
_atom_site_fract_x 
_atom_site_fract_y 
_atom_site_fract_z 
_atom_site_charge 
O1          O  0.82072774  0.75462325  0.36019840    -0.85500
O2          O  0.79212848  0.79390523  0.32301654    -0.82600
C3          C  0.78830575  0.81239096  0.30166709     0.97900
O4          O  0.80656726  0.82718840  0.29364005    -0.82600
O5          O  0.83512395  0.84659314  0.35182359    -0.85200
C6          C  0.85043392  0.84549066  0.37766625     1.02500
O7          O  0.86613357  0.82684803  0.38074317    -0.78000
O8          O  0.84120341  0.78117503  0.39447929    -0.78200
C9          C  0.82973117  0.76013786  0.38989675     1.02400
O10         O  0.85119384  0.74922016  0.30051041    -0.85500
O11         O  0.82187637  0.78400378  0.26445485    -0.82600
C12         C  0.83945465  0.79449006  0.24742178     0.98000
O13         O  0.85335553  0.81163401  0.26123691    -0.82600
O14         O  0.88059676  0.83618640  0.31389939    -0.85200
C15         C  0.89965097  0.82129341  0.31712094     1.02400
O16         O  0.89676178  0.79915595  0.32996442    -0.78000
O17         O  0.87419913  0.75423990  0.34804573    -0.78200
C18         C  0.86864740  0.74169537  0.32089883     1.02400
Cr19       Cr  0.82301195  0.77263915  0.31378735     1.93700
Cr20       Cr  0.84371017  0.82812933  0.30695496     1.93200
Cr21       Cr  0.86757993  0.79103138  0.36073242     1.39100
O22         O  0.84443835  0.79731554  0.32769632    -1.23300
O23         O  0.67108388  0.75747488  0.14627359    -0.85500
O24         O  0.70265209  0.79712622  0.17705495    -0.82600
C25         C  0.70811142  0.81611822  0.19657983     0.97900
O26         O  0.69097290  0.83264185  0.20363218    -0.82600
O27         O  0.66160634  0.85073002  0.14482925    -0.85200
C28         C  0.64569340  0.84880468  0.11977490     1.02500
O29         O  0.62903357  0.83111242  0.11979785    -0.78000
O30         O  0.65000622  0.78293181  0.11044754    -0.78200
C31         C  0.66148236  0.76192005  0.11644641     1.02400
O32         O  0.64263025  0.75766315  0.20879834    -0.85500
O33         O  0.67461665  0.79244423  0.23824869    -0.82600
C34         C  0.65864247  0.80542805  0.25528876     0.98000
O35         O  0.64481491  0.82245643  0.24035068    -0.82600
O36         O  0.61723050  0.84659842  0.18571579    -0.85200
C37         C  0.59733675  0.83310075  0.18405728     1.02400
O38         O  0.59894654  0.80962247  0.17628796    -0.78000
O39         O  0.61783494  0.76189066  0.16282166    -0.78200
C40         C  0.62396812  0.75031708  0.19072361     1.02400
Cr41       Cr  0.67123840  0.77838012  0.19066058     1.93700
Cr42       Cr  0.65364759  0.83560902  0.19215700     1.93200
Cr43       Cr  0.62603440  0.79706668  0.14481046     1.39100
O44         O  0.65065275  0.80368538  0.17524294    -1.23300
O45         O  0.34282701  0.79144840  0.35685577    -0.85500
O46         O  0.36486922  0.83804561  0.37081960    -0.82600
C47         C  0.34851450  0.85618394  0.37135564     0.97900
O48         O  0.33243976  0.85798329  0.39633106    -0.82600
O49         O  0.30234482  0.83907749  0.45519586    -0.85200
C50         C  0.28441682  0.82412408  0.44622257     1.02500
O51         O  0.28937579  0.80606882  0.42477375    -0.78000
O52         O  0.31928297  0.76645783  0.38982779    -0.78200
C53         C  0.33051920  0.77087481  0.36120164     1.02400
O54         O  0.37375279  0.76678948  0.40769581    -0.85500
O55         O  0.39398201  0.81305350  0.42591677    -0.82600
C56         C  0.39637096  0.83633106  0.43433885     0.98000
O57         O  0.37673353  0.85039493  0.43696766    -0.82600
O58         O  0.35480382  0.82626216  0.98988146    -0.85200
C59         C  0.34159403  0.80866861  0.00424637     1.02400
O60         O  0.31787677  0.79624723  0.48507647    -0.78000
O61         O  0.34748152  0.76026196  0.45141781    -0.78200
C62         C  0.36629726  0.75328431  0.43313838     1.02400
Cr63       Cr  0.36673270  0.80300237  0.39292352     1.93700
Cr64       Cr  0.33995298  0.84057311  0.44282151     1.93200
Cr65       Cr  0.32009333  0.78457276  0.43610573     1.39100
O66         O  0.34192362  0.80933848  0.42328972    -1.23300
O67         O  0.14903910  0.78993289  0.14183915    -0.85500
O68         O  0.12505815  0.83575524  0.12866618    -0.82600
C69         C  0.14052173  0.85449054  0.12774505     0.97900
O70         O  0.15584489  0.85738684  0.10205456    -0.82600
O71         O  0.18642578  0.83999782  0.04293712    -0.85200
C72         C  0.20525431  0.82591429  0.05187069     1.02500
O73         O  0.20159185  0.80783157  0.07387294    -0.78000
O74         O  0.17431029  0.76652848  0.10918178    -0.78200
C75         C  0.16226687  0.76986911  0.13739018     1.02400
O76         O  0.11912619  0.76480887  0.09080655    -0.85500
O77         O  0.09617216  0.81060756  0.07405491    -0.82600
C78         C  0.09266151  0.83395733  0.06628128     0.98000
O79         O  0.11172519  0.84843942  0.06244358    -0.82600
O80         O  0.14061110  0.82312509  0.00939149    -0.85200
C81         C  0.14874845  0.79188411  0.50214480     1.02400
O82         O  0.17355531  0.79678923  0.01413885    -0.78000
O83         O  0.14654779  0.75927490  0.04804251    -0.78200
C84         C  0.12798941  0.75150088  0.06606944     1.02400
Cr85       Cr  0.12441175  0.80100455  0.10618178     1.93700
Cr86       Cr  0.14888918  0.83982171  0.05578553     1.93200
Cr87       Cr  0.17221382  0.78491588  0.06302742     1.39100
O88         O  0.14878550  0.80852518  0.07564491    -1.23300
O89         O  0.32329388  0.74127803  0.14163968    -0.85500
O90         O  0.29261553  0.70153483  0.17528054    -0.82600
C91         C  0.28796129  0.68258103  0.19556817     0.97900
O92         O  0.30587519  0.66726167  0.20418679    -0.82600
O93         O  0.33549775  0.64788678  0.14697453    -0.85200
C94         C  0.35102806  0.64967864  0.12149634     1.02500
O95         O  0.36688015  0.66800331  0.11981860    -0.78000
O96         O  0.34387836  0.71481622  0.10737713    -0.78200
C97         C  0.33334420  0.73638339  0.11237650     1.02400
O98         O  0.35213634  0.74374521  0.20334736    -0.85500
O99         O  0.32083104  0.70892716  0.23549900    -0.82600
C100        C  0.33800755  0.69811219  0.25319333     0.98000
O101        O  0.35217290  0.68083876  0.23971802    -0.82600
O102        O  0.37988299  0.65521435  0.18719952    -0.85200
C103        C  0.39924678  0.66921147  0.18355760     1.02400
O104        O  0.39704446  0.69217673  0.17335803    -0.78000
O105        O  0.37623433  0.73869481  0.15705139    -0.78200
C106        C  0.37030348  0.75105666  0.18421577     1.02400
Cr107      Cr  0.32374641  0.72162688  0.18713629     1.93700
Cr108      Cr  0.34323971  0.66520607  0.19294574     1.93200
Cr109      Cr  0.36897662  0.70278022  0.14190658     1.39100
O110        O  0.34498539  0.69645700  0.17333846    -1.23300
O111        O  0.17339998  0.73391398  0.35848252    -0.85500
O112        O  0.20205493  0.69633939  0.31982395    -0.82600
C113        C  0.20624789  0.67850445  0.29791809     0.97900
O114        O  0.18837212  0.66329399  0.28974817    -0.82600
O115        O  0.16022165  0.64306101  0.34870945    -0.85200
C116        C  0.14480938  0.64400257  0.37444726     1.02500
O117        O  0.12776267  0.66132521  0.37566178    -0.78000
O118        O  0.15428704  0.70480370  0.39027277    -0.78200
C119        C  0.16485359  0.72643717  0.38761036     1.02400
O120        O  0.14239229  0.74101479  0.29905128    -0.85500
O121        O  0.17187688  0.70738970  0.26179387    -0.82600
C122        C  0.15533611  0.69591887  0.24395701     0.98000
O123        O  0.14168166  0.67816664  0.25719816    -0.82600
O124        O  0.11442175  0.65260982  0.31040982    -0.85200
C125        C  0.09511292  0.66690325  0.31531866     1.02400
O126        O  0.09779115  0.68978408  0.32577629    -0.78000
O127        O  0.12100104  0.73499259  0.34739580    -0.78200
C128        C  0.12639544  0.74883635  0.32123881     1.02400
Cr129      Cr  0.17095194  0.71740572  0.31126836     1.93700
Cr130      Cr  0.15126631  0.66143702  0.30321649     1.93200
Cr131      Cr  0.12697855  0.69733845  0.35707499     1.39100
O132        O  0.14986478  0.69207629  0.32391601    -1.23300
O133        O  0.96090256  0.39631407  0.01599379    -0.85500
O134        O  0.91632246  0.37182057  0.00235164    -0.82600
C135        C  0.89913302  0.38912297  0.00260513     0.97900
O136        O  0.89784904  0.40396535  0.47723278    -0.82600
O137        O  0.91588850  0.43533189  0.41976706    -0.85200
C138        C  0.93221800  0.45243150  0.42651061     1.02500
O139        O  0.95042212  0.44692627  0.44719508    -0.78000
O140        O  0.98665126  0.41433001  0.48252460    -0.78200
C141        C  0.98151614  0.40817158  0.01203176     1.02400
O142        O  0.98597521  0.35929796  0.46324393    -0.85500
O143        O  0.93985369  0.34110634  0.44179507    -0.82600
C144        C  0.91721454  0.34039206  0.43120745     0.98000
O145        O  0.90354626  0.36049501  0.43269202    -0.82600
O146        O  0.92770965  0.39045238  0.38145288    -0.85200
C147        C  0.94558374  0.40406139  0.36869833     1.02400
O148        O  0.95883604  0.41859711  0.38744028    -0.78000
O149        O  0.99240860  0.38643240  0.42010568    -0.78200
C150        C  0.99933555  0.36716265  0.43809745     1.02400
Cr151      Cr  0.95010999  0.36694779  0.47710870     1.93700
Cr152      Cr  0.91361452  0.39744054  0.42965805     1.93200
Cr153      Cr  0.96979633  0.41484979  0.43600561     1.39100
O154        O  0.94460555  0.39347193  0.44808077    -1.23300
O155        O  0.96230288  0.58700277  0.22347771    -0.85500
O156        O  0.91543344  0.60873744  0.23635605    -0.82600
C157        C  0.89814887  0.59181879  0.23872600     0.97900
O158        O  0.89725949  0.57653186  0.26498893    -0.82600
O159        O  0.91816601  0.54857361  0.32389817    -0.85200
C160        C  0.93386542  0.53069728  0.31667376     1.02500
O161        O  0.95207601  0.53524377  0.29568144    -0.78000
O162        O  0.98875455  0.56649990  0.25833562    -0.78200
C163        C  0.98352641  0.57616000  0.22878072     1.02400
O164        O  0.98556104  0.62142798  0.27097224    -0.85500
O165        O  0.93918886  0.64107331  0.28851569    -0.82600
C166        C  0.91660471  0.64271754  0.29913460     0.98000
O167        O  0.90360603  0.62253124  0.30298487    -0.82600
O168        O  0.93063469  0.59668367  0.35633243    -0.85200
C169        C  0.94860441  0.58351507  0.37008650     1.02400
O170        O  0.95976687  0.56617179  0.35316943    -0.78000
O171        O  0.99230773  0.59779085  0.31779787    -0.78200
C172        C  0.99851894  0.61621057  0.29788215     1.02400
Cr173      Cr  0.95005450  0.61247869  0.25752419     1.93700
Cr174      Cr  0.91477435  0.58597933  0.31035045     1.93200
Cr175      Cr  0.97090324  0.56793957  0.30434357     1.39100
O176        O  0.94518560  0.58833661  0.29000100    -1.23300
O177        O  0.53493973  0.58813475  0.27438573    -0.85500
O178        O  0.57975829  0.61427771  0.26636468    -0.82600
C179        C  0.59873407  0.59930225  0.26269229     0.97900
O180        O  0.60086743  0.58524679  0.23549393    -0.82600
O181        O  0.58204012  0.55826952  0.17449323    -0.85200
C182        C  0.56686726  0.53966394  0.17998995     1.02500
O183        O  0.54814378  0.54283375  0.20063727    -0.78000
O184        O  0.50834878  0.57081525  0.23769598    -0.78200
C185        C  0.51340678  0.57869117  0.26812405     1.02400
O186        O  0.50928592  0.62445847  0.23032736    -0.85500
O187        O  0.55460290  0.64807967  0.21736889    -0.82600
C188        C  0.57723245  0.65140335  0.20777178     0.98000
O189        O  0.59132861  0.63226671  0.20077929    -0.82600
O190        O  0.56794021  0.60701771  0.14418280    -0.85200
C191        C  0.55151029  0.59332150  0.12851702     1.02400
O192        O  0.54014714  0.57547130  0.14421003    -0.78000
O193        O  0.50559108  0.60463964  0.18012805    -0.78200
C194        C  0.49733765  0.62070752  0.20213358     1.02400
Cr195      Cr  0.54528866  0.61692146  0.24435634     1.93700
Cr196      Cr  0.58313524  0.59542644  0.19032559     1.93200
Cr197      Cr  0.52779158  0.57486560  0.19268945     1.39100
O198        O  0.55220882  0.59544691  0.20955040    -1.23300
O199        O  0.53871053  0.40634920  0.47854777    -0.85500
O200        O  0.58360617  0.38220110  0.49650817    -0.82600
C201        C  0.60097740  0.39914074  0.49764279     0.97900
O202        O  0.60404559  0.41537729  0.02015917    -0.82600
O203        O  0.58372915  0.44348164  0.07859551    -0.85200
C204        C  0.56820027  0.46151781  0.07081927     1.02500
O205        O  0.55012627  0.45710682  0.04952529    -0.78000
O206        O  0.51235768  0.42669121  0.01304855    -0.78200
C207        C  0.51797395  0.41853231  0.48136021     1.02400
O208        O  0.51486685  0.37314606  0.02473223    -0.85500
O209        O  0.56025124  0.35170326  0.04240675    -0.82600
C210        C  0.58260421  0.34917954  0.05367095     0.98000
O211        O  0.59630459  0.36889266  0.05797853    -0.82600
O212        O  0.57066296  0.39524710  0.11117291    -0.85200
C213        C  0.55319928  0.40881099  0.12502735     1.02400
O214        O  0.54220036  0.42640109  0.10801006    -0.78000
O215        O  0.50937729  0.39523653  0.07286272    -0.78200
C216        C  0.50236982  0.37779995  0.05208487     1.02400
Cr217      Cr  0.55064707  0.38096234  0.01177464     1.93700
Cr218      Cr  0.58644158  0.40589372  0.06527154     1.93200
Cr219      Cr  0.53073362  0.42495947  0.05905944     1.39100
O220        O  0.55603245  0.40432989  0.04475501    -1.23300
O221        O  0.79921186  0.21728679  0.37925070    -0.85500
O222        O  0.79187642  0.19935001  0.44898992    -0.82600
C223        C  0.78660309  0.17560629  0.45296272     0.97900
O224        O  0.80137565  0.15843682  0.44022527    -0.82600
O225        O  0.84553119  0.13878269  0.40224174    -0.85200
C226        C  0.84382762  0.14150709  0.36903305     1.02500
O227        O  0.84139719  0.16367211  0.35569496    -0.78000
O228        O  0.83497900  0.21579421  0.34923516    -0.78200
C229        C  0.81174283  0.22231319  0.35190229     1.02400
O230        O  0.84214780  0.24533640  0.40180359    -0.85500
O231        O  0.83900171  0.22411162  0.46521441    -0.82600
C232        C  0.83725631  0.20638769  0.99985139     0.98000
O233        O  0.83757911  0.18208702  0.99572245    -0.82600
O234        O  0.87649797  0.16889698  0.45045305    -0.85200
C235        C  0.89349677  0.16850228  0.42720119     1.02400
O236        O  0.88731574  0.17158333  0.39554733    -0.78000
O237        O  0.87748614  0.22358912  0.39551308    -0.78200
C238        C  0.86614370  0.24484073  0.40021047     1.02400
Cr239      Cr  0.81917650  0.21910607  0.42306344     1.93700
Cr240      Cr  0.83931091  0.16461684  0.44212673     1.93200
Cr241      Cr  0.85861381  0.19337767  0.37664264     1.39100
O242        O  0.83827838  0.19181193  0.41337609    -1.23300
O243        O  0.68471614  0.22363132  0.12635873    -0.85500
O244        O  0.70523330  0.19179850  0.07220782    -0.82600
C245        C  0.70491986  0.17218170  0.05229902     0.97900
O246        O  0.68446889  0.15982739  0.04726329    -0.82600
O247        O  0.64540185  0.14445174  0.09853270    -0.85200
C248        C  0.64543904  0.14972364  0.13160708     1.02500
O249        O  0.64535948  0.17296387  0.14261632    -0.78000
O250        O  0.64530485  0.22809723  0.14054135    -0.78200
C251        C  0.66775322  0.23520218  0.14367163     1.02400
O252        O  0.65084469  0.24660356  0.07539844    -0.85500
O253        O  0.67461478  0.21874379  0.02484588    -0.82600
C254        C  0.65312192  0.21041141  0.50653477     0.98000
O255        O  0.64732859  0.18837862  0.01012377    -0.82600
O256        O  0.60951036  0.17078122  0.04941732    -0.85200
C257        C  0.59439832  0.16886243  0.07445774     1.02400
O258        O  0.60199797  0.17526555  0.10389399    -0.78000
O259        O  0.61309863  0.22830444  0.08600201    -0.78200
C260        C  0.62645999  0.24771062  0.07653694     1.02400
Cr261      Cr  0.67677401  0.21783504  0.07566126     1.93700
Cr262      Cr  0.64739187  0.16768674  0.05435278     1.93200
Cr263      Cr  0.62894001  0.20043760  0.11481772     1.39100
O264        O  0.65171407  0.19501806  0.08147509    -1.23300
O265        O  0.02188017  0.11015332  0.01692571    -0.85500
O266        O  0.07304883  0.10359365  0.01972254    -0.82600
C267        C  0.09590005  0.09994277  0.01086844     0.97900
O268        O  0.09764840  0.09869453  0.47909635    -0.82600
O269        O  0.07617829  0.05627902  0.43881836    -0.85200
C270        C  0.05769501  0.04324177  0.42682367     1.02500
O271        O  0.03515878  0.05107527  0.43167766    -0.78000
O272        O  0.01306696  0.06956456  0.49558875    -0.78200
C273        C  0.01021622  0.08907878  0.01656444     1.02400
O274        O  0.01802640  0.14572772  0.46231927    -0.85500
O275        O  0.07161398  0.14781906  0.47380251    -0.82600
C276        C  0.08221772  0.15050603  0.44476285     0.98000
O277        O  0.08084794  0.13271650  0.42241837    -0.82600
O278        O  0.05953603  0.09113232  0.38685159    -0.85200
C279        C  0.03641952  0.09425637  0.37787901     1.02400
O280        O  0.01891719  0.09667645  0.39999646    -0.78000
O281        O  0.99375191  0.11163144  0.45695934    -0.78200
C282        C  0.99619776  0.13580229  0.45704524     1.02400
Cr283      Cr  0.04425867  0.12490852  0.49000200     1.93700
Cr284      Cr  0.07603416  0.09519603  0.43438142     1.93200
Cr285      Cr  0.01822208  0.08332715  0.44733079     1.39100
O286        O  0.04653820  0.10061015  0.45743631    -1.23300
O287        O  0.01814404  0.89565504  0.23496579    -0.85500
O288        O  0.07054142  0.89943864  0.23327403    -0.82600
C289        C  0.09354432  0.90059723  0.24298785     0.97900
O290        O  0.09909218  0.90126359  0.27563375    -0.82600
O291        O  0.07776422  0.94425185  0.31565062    -0.85200
C292        C  0.05923988  0.95812301  0.32626589     1.02500
O293        O  0.03660138  0.95016316  0.32295676    -0.78000
O294        O  0.01277638  0.93348178  0.25892011    -0.78200
C295        C  0.00645698  0.91686313  0.23623740     1.02400
O296        O  0.02016001  0.85641033  0.28547048    -0.85500
O297        O  0.07365229  0.85569792  0.27644141    -0.82600
C298        C  0.08162626  0.85076481  0.30664682     0.98000
O299        O  0.07925886  0.86742595  0.33040319    -0.82600
O300        O  0.06011877  0.90998178  0.36681985    -0.85200
C301        C  0.03710595  0.90646801  0.37535285     1.02400
O302        O  0.01996376  0.90374554  0.35293629    -0.78000
O303        O  0.99580576  0.89014224  0.29563883    -0.78200
C304        C  0.99837316  0.86609013  0.29213266     1.02400
Cr305      Cr  0.04598694  0.87885314  0.26057987     1.93700
Cr306      Cr  0.07669023  0.90539418  0.31953748     1.93200
Cr307      Cr  0.01916752  0.91844905  0.30645961     1.39100
O308        O  0.04750133  0.90154464  0.29526050    -1.23300
O309        O  0.18500904  0.26237645  0.39186720    -0.85500
O310        O  0.20975157  0.30215832  0.43003276    -0.82600
C311        C  0.21201409  0.32139890  0.45021288     0.97900
O312        O  0.19311667  0.33619388  0.45560490    -0.82600
O313        O  0.16511490  0.35345467  0.39537770    -0.85200
C314        C  0.15074252  0.35101533  0.36881241     1.02500
O315        O  0.13604651  0.33195055  0.36626189    -0.78000
O316        O  0.16737779  0.29057570  0.35667937    -0.78200
C317        C  0.17943932  0.26978313  0.36135366     1.02400
O318        O  0.15123376  0.25574909  0.44874768    -0.85500
O319        O  0.17861947  0.29158793  0.48618023    -0.82600
C320        C  0.15961025  0.30590649  0.00229612     0.98000
O321        O  0.14414926  0.32097985  0.98646160    -0.82600
O322        O  0.11917229  0.34082919  0.43131313    -0.85200
C323        C  0.10116174  0.32540254  0.42459412     1.02400
O324        O  0.10594175  0.30286227  0.41378252    -0.78000
O325        O  0.13369900  0.25891867  0.39696151    -0.78200
C326        C  0.13668109  0.24682652  0.42538734     1.02400
Cr327      Cr  0.17955575  0.28000649  0.43756439     1.93700
Cr328      Cr  0.15641242  0.33528962  0.44067105     1.93200
Cr329      Cr  0.13746151  0.29661133  0.38626536     1.39100
O330        O  0.15787199  0.30404512  0.42162021    -1.23300
O331        O  0.31649915  0.27576606  0.11564094    -0.85500
O332        O  0.29528539  0.31682240  0.07204711    -0.82600
C333        C  0.29476427  0.33327706  0.04735776     0.97900
O334        O  0.31523815  0.34386734  0.03786395    -0.82600
O335        O  0.34211655  0.36395494  0.09730649    -0.85200
C336        C  0.35518639  0.36218613  0.12544400     1.02500
O337        O  0.36885792  0.34242042  0.13195440    -0.78000
O338        O  0.34122607  0.29935999  0.14830052    -0.78200
C339        C  0.32771999  0.27958260  0.14438355     1.02400
O340        O  0.34756920  0.26207800  0.06025960    -0.85500
O341        O  0.32630957  0.29788939  0.01738489    -0.82600
C342        C  0.33588704  0.30880503  0.50099992     0.98000
O343        O  0.36145489  0.32057321  0.01365291    -0.82600
O344        O  0.38756157  0.34810519  0.06577580    -0.85200
C345        C  0.40486349  0.33220491  0.07327878     1.02400
O346        O  0.39956765  0.31061134  0.08609757    -0.78000
O347        O  0.37286930  0.26865368  0.10520775    -0.78200
C348        C  0.36516088  0.25470880  0.08049742     1.02400
Cr349      Cr  0.32307219  0.29041938  0.06792751     1.93700
Cr350      Cr  0.35104577  0.34189748  0.05560474     1.93200
Cr351      Cr  0.36882548  0.30597983  0.11509804     1.39100
O352        O  0.34737606  0.31276887  0.08022240    -1.23300
O353        O  0.02128879  0.56782830  0.01365879    -0.85500
O354        O  0.06145391  0.53965371  0.04911394    -0.82600
C355        C  0.07893743  0.53544869  0.07146006     0.97900
O356        O  0.09284892  0.55404322  0.08107839    -0.82600
O357        O  0.11104909  0.58433384  0.02335510    -0.85200
C358        C  0.10911638  0.60008307  0.99778149     1.02500
O359        O  0.08314702  0.61963108  0.49156662    -0.78000
O360        O  0.04039352  0.59134468  0.47606848    -0.78200
C361        C  0.01998627  0.57898809  0.47991341     1.02400
O362        O  0.01376306  0.59623137  0.07454782    -0.85500
O363        O  0.05014651  0.56768115  0.10903931    -0.82600
C364        C  0.05925423  0.58574673  0.12679589     0.98000
O365        O  0.07599389  0.60073189  0.11410618    -0.82600
O366        O  0.10141553  0.62949361  0.06173368    -0.85200
C367        C  0.08686364  0.64875115  0.05748013     1.02400
O368        O  0.06411466  0.64525572  0.04875660    -0.78000
O369        O  0.01940818  0.62305926  0.03048310    -0.78200
C370        C  0.00627393  0.61495737  0.05583695     1.02400
Cr371      Cr  0.03883933  0.56948392  0.06002840     1.93700
Cr372      Cr  0.09298715  0.59197613  0.06843679     1.93200
Cr373      Cr  0.05559642  0.61704833  0.01641927     1.39100
O374        O  0.06244168  0.59255393  0.04765870    -1.23300
O375        O  0.01275127  0.43190082  0.23757750    -0.85500
O376        O  0.05516143  0.45403064  0.19994997    -0.82600
C377        C  0.07331050  0.45522626  0.17805712     0.97900
O378        O  0.08545824  0.43473668  0.17008133    -0.82600
O379        O  0.10257557  0.40410319  0.22743182    -0.85200
C380        C  0.09976326  0.39158521  0.25572932     1.02500
O381        O  0.07957031  0.37898566  0.26161882    -0.78000
O382        O  0.03900909  0.41163913  0.27203126    -0.78200
C383        C  0.01799853  0.42290291  0.26742689     1.02400
O384        O  0.00411124  0.39965150  0.17988063    -0.85500
O385        O  0.04114751  0.42492165  0.14231305    -0.82600
C386        C  0.04910084  0.40565017  0.12574260     0.98000
O387        O  0.06350726  0.38909281  0.14010856    -0.82600
O388        O  0.08418997  0.35863863  0.19188194    -0.85200
C389        C  0.06686374  0.34242783  0.19880632     1.02400
O390        O  0.04745213  0.34914117  0.21561991    -0.78000
O391        O  0.00708156  0.37919040  0.23016661    -0.78200
C392        C  0.99511683  0.38404127  0.20214367     1.02400
Cr393      Cr  0.03030975  0.42592902  0.19162958     1.93700
Cr394      Cr  0.08182591  0.39714893  0.18442148     1.93200
Cr395      Cr  0.04412349  0.38138980  0.24229378     1.39100
O396        O  0.05222800  0.40154267  0.20638295    -1.23300
O397        O  0.97636384  0.92414868  0.01404155    -0.85500
O398        O  0.93732232  0.95420201  0.04639044    -0.82600
C399        C  0.91891583  0.95935187  0.06661236     0.97900
O400        O  0.90402829  0.94158606  0.07603186    -0.82600
O401        O  0.88746633  0.90889450  0.02131465    -0.85200
C402        C  0.88967020  0.89198280  0.99752664     1.02500
O403        O  0.90569385  0.87736895  0.49615181    -0.78000
O404        O  0.94795869  0.90564733  0.48167626    -0.78200
C405        C  0.96810441  0.91845664  0.48494588     1.02400
O406        O  0.98365464  0.89763921  0.07755909    -0.85500
O407        O  0.94778032  0.92878528  0.10930999    -0.82600
C408        C  0.93511691  0.91421666  0.12905043     0.98000
O409        O  0.91875905  0.89856316  0.11673413    -0.82600
O410        O  0.89657514  0.86544764  0.06639603    -0.85200
C411        C  0.91150055  0.84619913  0.06457436     1.02400
O412        O  0.93420161  0.84943534  0.05534459    -0.78000
O413        O  0.97832025  0.87131661  0.03339966    -0.78200
C414        C  0.99144248  0.87912677  0.05886177     1.02400
Cr415      Cr  0.95909738  0.92449847  0.06055130     1.93700
Cr416      Cr  0.90401129  0.90349739  0.06845400     1.93200
Cr417      Cr  0.94179808  0.87610150  0.02031465     1.39100
O418        O  0.93507575  0.90149415  0.04978868    -1.23300
O419        O  0.97780254  0.06069299  0.23804228    -0.85500
O420        O  0.93727500  0.03563913  0.20000886    -0.82600
C421        C  0.91914467  0.03345391  0.17824562     0.97900
O422        O  0.90501175  0.05274138  0.17162089    -0.82600
O423        O  0.88876833  0.08236578  0.22967286    -0.85200
C424        C  0.89145191  0.09692185  0.25599005     1.02500
O425        O  0.90953538  0.11287799  0.25713675    -0.78000
O426        O  0.94994144  0.08104692  0.26970981    -0.78200
C427        C  0.97131876  0.07023492  0.26705082     1.02400
O428        O  0.98599127  0.09180198  0.17858973    -0.85500
O429        O  0.94971162  0.06495541  0.14154127    -0.82600
C430        C  0.93857575  0.08239052  0.12421287     0.98000
O431        O  0.92277002  0.09777012  0.13830580    -0.82600
O432        O  0.90220642  0.12847304  0.19038072    -0.85200
C433        C  0.91880359  0.14608541  0.19325108     1.02400
O434        O  0.93986988  0.14119870  0.20779216    -0.78000
O435        O  0.98178739  0.11321383  0.22751685    -0.78200
C436        C  0.99464747  0.10750449  0.20080796     1.02400
Cr437      Cr  0.96059773  0.06487528  0.19103176     1.93700
Cr438      Cr  0.90681425  0.09009720  0.18442811     1.93200
Cr439      Cr  0.94469332  0.11040530  0.23809397     1.39100
O440        O  0.93745451  0.08847475  0.20426385    -1.23300
O441        O  0.84575889  0.70212229  0.14148230    -0.85500
O442        O  0.87013810  0.65614770  0.12810348    -0.82600
C443        C  0.85474875  0.63761248  0.12387396     0.97900
O444        O  0.84032105  0.63667175  0.09701264    -0.82600
O445        O  0.81260235  0.65776840  0.03746974    -0.85200
C446        C  0.79423468  0.67268991  0.04555411     1.02500
O447        O  0.79784153  0.68983013  0.06863262    -0.78000
O448        O  0.82498185  0.72882798  0.10731317    -0.78200
C449        C  0.83432729  0.72333892  0.13686168     1.02400
O450        O  0.87941083  0.72871939  0.09624892    -0.85500
O451        O  0.90231835  0.68298922  0.07908386    -0.82600
C452        C  0.90561395  0.66033314  0.06821379     0.98000
O453        O  0.88645356  0.64647128  0.06157976    -0.82600
O454        O  0.86025157  0.67340124  0.00797546    -0.85200
C455        C  0.83633567  0.68845662  0.50020088     1.02400
O456        O  0.82853172  0.70124473  0.01152731    -0.78000
O457        O  0.85604004  0.73567522  0.04926982    -0.78200
C458        C  0.87286781  0.74271946  0.07064901     1.02400
Cr459      Cr  0.87252202  0.69192046  0.10840423     1.93700
Cr460      Cr  0.84969592  0.65593383  0.05285391     1.93200
Cr461      Cr  0.82840608  0.71148500  0.06087629     1.39100
O462        O  0.85000727  0.68643833  0.07451642    -1.23300
O463        O  0.65382710  0.71414589  0.35883401    -0.85500
O464        O  0.63118909  0.66694278  0.36987473    -0.82600
C465        C  0.64622179  0.64776596  0.37339221     0.97900
O466        O  0.66095133  0.64589831  0.39993155    -0.82600
O467        O  0.68899985  0.66508421  0.45931210    -0.85200
C468        C  0.70743536  0.67976884  0.45173010     1.02500
O469        O  0.70380103  0.69859985  0.43078702    -0.78000
O470        O  0.67538082  0.73889224  0.39434114    -0.78200
C471        C  0.66541672  0.73490141  0.36480952     1.02400
O472        O  0.62027830  0.73800221  0.40711302    -0.85500
O473        O  0.59907010  0.69140181  0.42155562    -0.82600
C474        C  0.59637716  0.66831417  0.43096075     0.98000
O475        O  0.61576142  0.65448926  0.43669889    -0.82600
O476        O  0.64658532  0.67682872  0.98724819    -0.85200
C477        C  0.66004970  0.69415953  0.00156240     1.02400
O478        O  0.67340907  0.70762089  0.48856799    -0.78000
O479        O  0.64458804  0.74357205  0.45331990    -0.78200
C480        C  0.62663467  0.75097202  0.43358876     1.02400
Cr481      Cr  0.62813540  0.70192351  0.39206256     1.93700
Cr482      Cr  0.65205688  0.66400309  0.44508964     1.93200
Cr483      Cr  0.67268051  0.71982037  0.43982457     1.39100
O484        O  0.65133034  0.69520190  0.42489819    -1.23300
O485        O  0.45991723  0.90746467  0.27354968    -0.85500
O486        O  0.41461258  0.88359746  0.25963085    -0.82600
C487        C  0.39611884  0.89937498  0.25642071     0.97900
O488        O  0.39460701  0.91455259  0.23010633    -0.82600
O489        O  0.41427512  0.94400005  0.17273398    -0.85200
C490        C  0.42809412  0.96274399  0.18197768     1.02500
O491        O  0.44599963  0.95886381  0.20381637    -0.78000
O492        O  0.48527105  0.92992536  0.24008243    -0.78200
C493        C  0.48058360  0.91915690  0.26896704     1.02400
O494        O  0.48579872  0.87494237  0.22556903    -0.85500
O495        O  0.44098682  0.85271158  0.20781093    -0.82600
C496        C  0.41838219  0.84984762  0.19800270     0.98000
O497        O  0.40438824  0.86929209  0.19252966    -0.82600
O498        O  0.43078866  0.89729415  0.13975961    -0.85200
C499        C  0.44757525  0.91219730  0.12679699     1.02400
O500        O  0.45698091  0.93003993  0.14463861    -0.78000
O501        O  0.49186115  0.90035620  0.18015007    -0.78200
C502        C  0.49902276  0.88199368  0.19974012     1.02400
Cr503      Cr  0.44970495  0.88168826  0.23901736     1.93700
Cr504      Cr  0.41336198  0.90641404  0.18539536     1.93200
Cr505      Cr  0.46774724  0.92813573  0.19386474     1.39100
O506        O  0.44357305  0.90569845  0.20672608    -1.23300
O507        O  0.45783973  0.09792001  0.48018109    -0.85500
O508        O  0.41309787  0.12374147  0.49246925    -0.82600
C509        C  0.39191582  0.10423103  0.99838286     0.97900
O510        O  0.39140525  0.08824719  0.02382578    -0.82600
O511        O  0.41146080  0.06069129  0.08336763    -0.85200
C512        C  0.42780187  0.04341080  0.07637559     1.02500
O513        O  0.44603794  0.04853130  0.05574850    -0.78000
O514        O  0.48245441  0.08044622  0.01877243    -0.78200
C515        C  0.47941420  0.08783676  0.48479838     1.02400
O516        O  0.47920634  0.13382203  0.03146820    -0.85500
O517        O  0.43245019  0.15295906  0.05101847    -0.82600
C518        C  0.40958042  0.15444185  0.06050829     0.98000
O519        O  0.39616606  0.13438615  0.06232554    -0.82600
O520        O  0.42189786  0.10872678  0.11634519    -0.85200
C521        C  0.43993510  0.09616729  0.13081427     1.02400
O522        O  0.45254491  0.07956366  0.11419005    -0.78000
O523        O  0.48513752  0.11135346  0.07935054    -0.78200
C524        C  0.49253916  0.12827111  0.05794749     1.02400
Cr525      Cr  0.44323533  0.12539240  0.01866185     1.93700
Cr526      Cr  0.40756249  0.09795147  0.06980661     1.93200
Cr527      Cr  0.46427955  0.08130922  0.06524015     1.39100
O528        O  0.43834879  0.10106262  0.05061488    -1.23300
O529        O  0.33878015  0.21434285  0.39740060    -0.85500
O530        O  0.36261470  0.16852214  0.38161762    -0.82600
C531        C  0.34691772  0.15006491  0.37994569     0.97900
O532        O  0.33134714  0.14830763  0.35428274    -0.82600
O533        O  0.30009009  0.16863730  0.29721193    -0.85200
C534        C  0.28182877  0.18314247  0.30710782     1.02500
O535        O  0.28648277  0.20092255  0.32910355    -0.78000
O536        O  0.31591604  0.24043965  0.36469201    -0.78200
C537        C  0.32678105  0.23531101  0.39345355     1.02400
O538        O  0.36930312  0.24052704  0.34805432    -0.85500
O539        O  0.39097881  0.19578056  0.32827528    -0.82600
C540        C  0.39437413  0.17299136  0.31836871     0.98000
O541        O  0.37537764  0.15842048  0.31411135    -0.82600
O542        O  0.34604668  0.18537356  0.26272134    -0.85200
C543        C  0.33117719  0.20273459  0.25041768     1.02400
O544        O  0.31370935  0.21199298  0.26893121    -0.78000
O545        O  0.34407810  0.24671337  0.30288524    -0.78200
C546        C  0.36282893  0.25338766  0.32146711     1.02400
Cr547      Cr  0.36329842  0.20407528  0.36126431     1.93700
Cr548      Cr  0.33803474  0.16744699  0.30873475     1.93200
Cr549      Cr  0.31665695  0.22279679  0.31805823     1.39100
O550        O  0.33892729  0.19799347  0.33011942    -1.23300
O551        O  0.13268374  0.22385612  0.11411700    -0.85500
O552        O  0.14096782  0.17161130  0.11350325    -0.82600
C553        C  0.14315258  0.14841833  0.12339123     0.97900
O554        O  0.14352765  0.14298674  0.15611427    -0.82600
O555        O  0.18365607  0.16954436  0.19556016    -0.85200
C556        C  0.19452781  0.18899263  0.20948554     1.02500
O557        O  0.18391225  0.21108857  0.20734087    -0.78000
O558        O  0.16806754  0.23336762  0.14169763    -0.78200
C559        C  0.15281575  0.23688464  0.11624342     1.02400
O560        O  0.09206246  0.21840003  0.16192812    -0.85500
O561        O  0.09703682  0.16471040  0.15470383    -0.82600
C562        C  0.09248736  0.15689124  0.18517116     0.98000
O563        O  0.10830653  0.16102644  0.20942848    -0.82600
O564        O  0.14898649  0.18421289  0.24645418    -0.85200
C565        C  0.14356755  0.20747034  0.25335846     1.02400
O566        O  0.13263107  0.22098972  0.23079276    -0.78000
O567        O  0.12172100  0.24698943  0.17245352    -0.78200
C568        C  0.09860899  0.24141085  0.16856596     1.02400
Cr569      Cr  0.11746929  0.19456183  0.13887284     1.93700
Cr570      Cr  0.14539673  0.16650485  0.19946085     1.93200
Cr571      Cr  0.15115862  0.22559188  0.18724613     1.39100
O572        O  0.13894602  0.19533015  0.17444120    -1.23300
O573        O  0.50802041  0.93001524  0.48589384    -0.85500
O574        O  0.54616177  0.95969248  0.45015725    -0.82600
C575        C  0.56439495  0.96424260  0.42933544     0.97900
O576        O  0.58008011  0.94624740  0.42246462    -0.82600
O577        O  0.59851830  0.91832321  0.48316147    -0.85200
C578        C  0.60297293  0.89721893  0.00384926     1.02500
O579        O  0.58416124  0.88209411  0.00648257    -0.78000
O580        O  0.53968025  0.90753712  0.02090206    -0.78200
C581        C  0.51924258  0.92008282  0.01714251     1.02400
O582        O  0.50383417  0.89903111  0.42657433    -0.85500
O583        O  0.53891105  0.92843546  0.39209020    -0.82600
C584        C  0.55136525  0.91156544  0.37573672     0.98000
O585        O  0.56856561  0.89809393  0.39059936    -0.82600
O586        O  0.59348626  0.87187157  0.44569787    -0.85200
C587        C  0.58007082  0.85182581  0.44863696     1.02400
O588        O  0.55695557  0.85397287  0.45656640    -0.78000
O589        O  0.51010395  0.87384875  0.47218350    -0.78200
C590        C  0.49682902  0.88078737  0.44624178     1.02400
Cr591      Cr  0.52658204  0.92769944  0.44052529     1.93700
Cr592      Cr  0.58266086  0.90871874  0.43713875     1.93200
Cr593      Cr  0.54541757  0.88227640  0.48748697     1.39100
O594        O  0.55146748  0.90660029  0.45568272    -1.23300
O595        O  0.50679314  0.08417018  0.26947778    -0.85500
O596        O  0.54487803  0.05258783  0.30465884    -0.82600
C597        C  0.56322312  0.04742522  0.32533817     0.97900
O598        O  0.57906183  0.06501865  0.33253023    -0.82600
O599        O  0.59785575  0.09209655  0.27196975    -0.85200
C600        C  0.59628815  0.10725349  0.24564827     1.02500
O601        O  0.57938150  0.12488806  0.24412506    -0.78000
O602        O  0.53146816  0.10584124  0.23389959    -0.78200
C603        C  0.51080752  0.09443817  0.23998919     1.02400
O604        O  0.50444778  0.11487057  0.32914929    -0.79100
O605        O  0.53881965  0.08369018  0.36291169    -0.82600
C606        C  0.55083029  0.10066113  0.37937844     0.98000
O607        O  0.56845565  0.11358326  0.36483270    -0.82600
O608        O  0.59464038  0.13857806  0.30936199    -0.85200
C609        C  0.58226739  0.15935891  0.30543212     1.02400
O610        O  0.55895837  0.15839262  0.29776710    -0.78000
O611        O  0.51072762  0.14005566  0.28368006    -0.78200
C612        C  0.49730579  0.13312420  0.30940364     1.02400
Cr613      Cr  0.52611513  0.08537286  0.31463039     1.93700
Cr614      Cr  0.58249318  0.10237649  0.31812100     1.93200
Cr615      Cr  0.54575177  0.13026099  0.26769935     1.39100
O616        O  0.55137759  0.10569344  0.29950221    -1.23300
O617        O  0.84588693  0.27156740  0.11142122    -0.85500
O618        O  0.84828638  0.32424668  0.11099194    -0.82600
C619        C  0.85031895  0.34735185  0.12079930     0.97900
O620        O  0.85131574  0.35242511  0.15365002    -0.82600
O621        O  0.80812053  0.33180280  0.19397376    -0.85200
C622        C  0.79528515  0.31419233  0.20913033     1.02500
O623        O  0.80309245  0.29100027  0.20796975    -0.78000
O624        O  0.81110723  0.26914309  0.14359125    -0.78200
C625        C  0.82300461  0.26445646  0.11582144     1.02400
O626        O  0.88993961  0.26930142  0.15697462    -0.85500
O627        O  0.89403119  0.32291118  0.15101772    -0.82600
C628        C  0.89949737  0.33077058  0.18132819     0.98000
O629        O  0.88369874  0.32826231  0.20594971    -0.82600
O630        O  0.84069493  0.31038147  0.24472232    -0.85200
C631        C  0.84344010  0.28628305  0.25041117     1.02400
O632        O  0.85365618  0.27311245  0.22714795    -0.78000
O633        O  0.85657345  0.24559679  0.16740206    -0.78200
C634        C  0.88027258  0.24743304  0.16310223     1.02400
Cr635      Cr  0.86807123  0.29721881  0.13527102     1.93700
Cr636      Cr  0.84632368  0.32875841  0.19726285     1.93200
Cr637      Cr  0.83205889  0.27176700  0.18582594     1.39100
O638        O  0.84793634  0.29975479  0.17188736    -1.23300
O639        O  0.65437832  0.29909122  0.39511547    -0.85500
O640        O  0.62953591  0.34316630  0.37609437    -0.82600
C641        C  0.64590834  0.36098850  0.37707519     0.97900
O642        O  0.66275723  0.36287472  0.35320402    -0.82600
O643        O  0.69676880  0.34420611  0.29975071    -0.85200
C644        C  0.71416818  0.32949362  0.31149855     1.02500
O645        O  0.70835372  0.31231927  0.33386959    -0.78000
O646        O  0.67885707  0.27233567  0.36646471    -0.78200
C647        C  0.66702018  0.27842170  0.39385840     1.02400
O648        O  0.62671763  0.27042687  0.34423540    -0.85500
O649        O  0.60497123  0.31487363  0.32082784    -0.82600
C650        C  0.60191892  0.33774331  0.31065321     0.98000
O651        O  0.62090879  0.35255100  0.30781210    -0.82600
O652        O  0.65472228  0.32720856  0.25936285    -0.85200
C653        C  0.67082060  0.31016268  0.24921278     1.02400
O654        O  0.68560900  0.29943576  0.27071707    -0.78000
O655        O  0.65456810  0.26368887  0.30237493    -0.78200
C656        C  0.63512759  0.25680498  0.31948784     1.02400
Cr657      Cr  0.63105494  0.30744485  0.35665226     1.93700
Cr658      Cr  0.65866169  0.34443881  0.30677566     1.93200
Cr659      Cr  0.68012781  0.28917946  0.31951174     1.39100
O660        O  0.65666842  0.31359912  0.32772637    -1.23300
O661        O  0.48732977  0.57527479  0.48442543    -0.85500
O662        O  0.44769185  0.54475586  0.45140890    -0.82600
C663        C  0.42947268  0.54002435  0.43053419     0.97900
O664        O  0.41374484  0.55792138  0.42318732    -0.82600
O665        O  0.39601125  0.58662918  0.48289154    -0.85200
C666        C  0.39820944  0.60214666  0.50853708     1.02500
O667        O  0.41585578  0.62122844  0.00876648    -0.78000
O668        O  0.46159769  0.59745998  0.02256582    -0.78200
C669        C  0.48227179  0.58544623  0.01829254     1.02400
O670        O  0.48971708  0.60440873  0.42311250    -0.85500
O671        O  0.45418745  0.57439473  0.39123531    -0.82600
C672        C  0.44248196  0.59168112  0.37438837     0.98000
O673        O  0.42532781  0.60544170  0.38879763    -0.82600
O674        O  0.40040265  0.63237674  0.44350726    -0.85200
C675        C  0.41362074  0.65254308  0.44603057     1.02400
O676        O  0.43689844  0.65056338  0.45317972    -0.78000
O677        O  0.48398470  0.63094986  0.46719852    -0.78200
C678        C  0.49673116  0.62332866  0.44126672     1.02400
Cr679      Cr  0.46740123  0.57627091  0.43943431     1.93700
Cr680      Cr  0.41135707  0.59553566  0.43610755     1.93200
Cr681      Cr  0.44923333  0.62267570  0.48455447     1.39100
O682        O  0.44275359  0.59783840  0.45402196    -1.23300
O683        O  0.48664130  0.42683298  0.26209457    -0.85500
O684        O  0.44958067  0.45717332  0.30081927    -0.82600
C685        C  0.43149593  0.46140596  0.32214742     0.97900
O686        O  0.41623146  0.44340138  0.32942551    -0.82600
O687        O  0.39665504  0.41715478  0.26920496    -0.85200
C688        C  0.39766216  0.40222299  0.24280266     1.02500
O689        O  0.41418505  0.38425476  0.24117011    -0.78000
O690        O  0.46084381  0.40533303  0.22796720    -0.78200
C691        C  0.48172475  0.41665010  0.23288362     1.02400
O692        O  0.49208083  0.39514658  0.32110682    -0.85500
O693        O  0.45851339  0.42495254  0.35756772    -0.82600
C694        C  0.44655021  0.40816674  0.37461645     0.98000
O695        O  0.42871078  0.39516488  0.36073334    -0.82600
O696        O  0.40208320  0.37032783  0.30620159    -0.85200
C697        C  0.41495023  0.34993474  0.30239495     1.02400
O698        O  0.43797474  0.35131139  0.29354435    -0.78000
O699        O  0.48484177  0.37116766  0.27519464    -0.78200
C700        C  0.49903629  0.37763726  0.30028985     1.02400
Cr701      Cr  0.46929901  0.42452052  0.30857733     1.93700
Cr702      Cr  0.41333237  0.40649380  0.31467254     1.93200
Cr703      Cr  0.44890599  0.37994294  0.26233217     1.39100
O704        O  0.44392222  0.40400261  0.29466123    -1.23300
C705        C  0.40743692  0.51025979  0.38855602    -0.21500
C706        C  0.42998850  0.51738707  0.40608840    -0.09500
C707        C  0.45329347  0.50741611  0.39328111     0.29300
C708        C  0.45384734  0.49115229  0.36375532    -0.21500
C709        C  0.43124826  0.48403427  0.34638632    -0.09500
C710        C  0.40796615  0.49361005  0.35958231     0.29300
F711        F  0.38556800  0.48664894  0.34454840    -0.20100
H712        H  0.38923877  0.51803201  0.39698819     0.17700
H713        H  0.47197856  0.48322099  0.35532823     0.17700
F714        F  0.47571530  0.51416190  0.40838902    -0.20000
C715        C  0.56001584  0.34024713  0.27976391    -0.21500
C716        C  0.57587519  0.34808180  0.30714455    -0.09500
C717        C  0.56609351  0.36444463  0.33315561     0.29300
C718        C  0.54084486  0.37316978  0.33148068    -0.21500
C719        C  0.52487785  0.36590267  0.30367292    -0.09500
C720        C  0.53481079  0.34927994  0.27767219     0.29300
F721        F  0.52047553  0.34214186  0.24977615    -0.20100
H722        H  0.56726148  0.32736505  0.25979280     0.17700
H723        H  0.53391022  0.38591220  0.35181508     0.17700
F724        F  0.58083752  0.37156253  0.36064839    -0.20000
C725        C  0.76414862  0.29865677  0.25392134    -0.21500
C726        C  0.77380832  0.31960779  0.23422459    -0.09500
C727        C  0.76527739  0.34465103  0.24307757     0.29300
C728        C  0.74712939  0.34820264  0.27004300    -0.21500
C729        C  0.73781722  0.32705710  0.28976646    -0.09500
C730        C  0.74693141  0.30223332  0.28134780     0.29300
F731        F  0.73776811  0.28092846  0.29784741    -0.20100
H732        H  0.77010514  0.27900594  0.24842845     0.17700
H733        H  0.73991664  0.36750018  0.27507374     0.17700
F734        F  0.77427911  0.36563475  0.22573755    -0.20000
C735        C  0.62248841  0.18551935  0.30482860    -0.21500
C736        C  0.59568889  0.18457337  0.30782400    -0.09500
C737        C  0.58213146  0.20791962  0.31200803     0.29300
C738        C  0.59517459  0.23136640  0.31455760    -0.21500
C739        C  0.62190082  0.23223381  0.31209071    -0.09500
C740        C  0.63548971  0.20911875  0.30664786     0.29300
F741        F  0.66135116  0.20916923  0.30489396    -0.20100
H742        H  0.63344834  0.16792332  0.30108871     0.17700
H743        H  0.58433934  0.24897314  0.31889476     0.17700
F744        F  0.55631736  0.20810553  0.31457098    -0.20000
C745        C  0.58653691  0.01525083  0.36363066    -0.21500
C746        C  0.56340256  0.02391994  0.34864247    -0.09500
C747        C  0.54053369  0.01405539  0.36271389     0.29300
C748        C  0.54098284  0.99624471  0.39081461    -0.21500
C749        C  0.56416927  0.98742548  0.40550691    -0.09500
C750        C  0.58698632  0.99703675  0.39114143     0.29300
F751        F  0.60985771  0.98884700  0.40382512    -0.20100
H752        H  0.60445565  0.02294782  0.35428934     0.17700
H753        H  0.52307735  0.98864136  0.40034052     0.17700
F754        F  0.51762682  0.02244541  0.35038270    -0.20000
C755        C  0.44032296  0.17867915  0.30257349    -0.21500
C756        C  0.42067507  0.16283692  0.31521557    -0.09500
C757        C  0.42681147  0.13802646  0.32795275     0.29300
C758        C  0.45204956  0.12922180  0.32779825    -0.21500
C759        C  0.47164367  0.14466177  0.31414453    -0.09500
C760        C  0.46554776  0.16956334  0.30144694     0.29300
F761        F  0.48392343  0.18509841  0.28807552    -0.20100
H762        H  0.43605902  0.19803235  0.29318365     0.17700
H763        H  0.45612493  0.10986816  0.33734177     0.17700
F764        F  0.40851246  0.12249213  0.34143716    -0.20000
C765        C  0.25059356  0.16158153  0.26510243    -0.21500
C766        C  0.25746394  0.18314887  0.28573269    -0.09500
C767        C  0.24384286  0.20635986  0.27988994     0.29300
C768        C  0.22462205  0.20797815  0.25419904    -0.21500
C769        C  0.21757217  0.18651966  0.23351635    -0.09500
C770        C  0.23073325  0.16304997  0.23985786     0.29300
F771        F  0.22464933  0.14153786  0.22154180    -0.20100
H772        H  0.26094873  0.14352224  0.26814190     0.17700
H773        H  0.21506684  0.22641974  0.25073299     0.17700
F774        F  0.24996142  0.22813253  0.29767606    -0.20000
C775        C  0.36379344  0.29879142  0.30045849    -0.21500
C776        C  0.37688923  0.27722271  0.31367679    -0.09500
C777        C  0.40295771  0.27937424  0.32227483     0.29300
C778        C  0.41553886  0.30293029  0.31791279    -0.21500
C779        C  0.40213992  0.32477488  0.30594439    -0.09500
C780        C  0.37614812  0.32245217  0.29705209     0.29300
F781        F  0.36262076  0.34304138  0.28487986    -0.20100
H782        H  0.34370404  0.29758648  0.29399728     0.17700
H783        H  0.43554772  0.30427979  0.32474908     0.17700
F784        F  0.41623838  0.25873665  0.33498166    -0.20000
C785        C  0.35462515  0.12836597  0.47261072    -0.21500
C786        C  0.37421721  0.10987988  0.46909562    -0.09500
C787        C  0.37916275  0.10006278  0.43543940     0.29300
C788        C  0.36639719  0.11022099  0.40585574    -0.21500
C789        C  0.34888976  0.13081998  0.40902207    -0.09500
C790        C  0.34221500  0.13883005  0.44300642     0.29300
F791        F  0.32618722  0.15928649  0.44728234    -0.20100
H792        H  0.35098219  0.13692725  0.49793830     0.17700
H793        H  0.37243421  0.10406935  0.38013950     0.17700
F794        F  0.39848110  0.08283934  0.43070370    -0.20000
C795        C  0.51988612  0.12131918  0.41642356    -0.21500
C796        C  0.54123370  0.10495129  0.41461649    -0.09500
C797        C  0.54308420  0.08406010  0.43820828     0.29300
C798        C  0.52284110  0.07829654  0.46070837    -0.21500
C799        C  0.50020206  0.09295293  0.45957280    -0.09500
C800        C  0.49931377  0.11517052  0.43800125     0.29300
F801        F  0.47847758  0.13089828  0.43731549    -0.20100
H802        H  0.51770183  0.13707945  0.39783455     0.17700
H803        H  0.52444544  0.06169561  0.47796955     0.17700
F804        F  0.56308123  0.06732355  0.43624050    -0.20000
C805        C  0.46715018  0.12090829  0.16928602    -0.21500
C806        C  0.44923373  0.10109673  0.16612636    -0.09500
C807        C  0.45013396  0.08020878  0.18981021     0.29300
C808        C  0.47007532  0.07807113  0.21407097    -0.21500
C809        C  0.48967922  0.09643863  0.21445988    -0.09500
C810        C  0.48735575  0.11857345  0.19294357     0.29300
F811        F  0.50486946  0.13779119  0.19420222    -0.20100
H812        H  0.46716672  0.13682112  0.15072325     0.17700
H813        H  0.47086964  0.06141750  0.23133454     0.17700
F814        F  0.43324853  0.06052950  0.18686849    -0.20000
C815        C  0.45013962  0.99805012  0.14869757    -0.21500
C816        C  0.42726220  0.98611854  0.15891393    -0.09500
C817        C  0.40491648  0.99211880  0.13978487     0.29300
C818        C  0.40555709  0.00937743  0.11135864    -0.21500
C819        C  0.42852859  0.02067818  0.10045137    -0.09500
C820        C  0.45084304  0.01500512  0.11981518     0.29300
F821        F  0.47317677  0.02677464  0.11186640    -0.20100
H822        H  0.46778705  0.99341443  0.16217343     0.17700
H823        H  0.38790464  0.01422720  0.09801678     0.17700
F824        F  0.38239628  0.98089796  0.14822671    -0.20000
C825        C  0.52126287  0.93394993  0.29581555    -0.21500
C826        C  0.50160462  0.91573434  0.29413906    -0.09500
C827        C  0.50432334  0.89220870  0.31263358     0.29300
C828        C  0.52504428  0.88827175  0.33501604    -0.21500
C829        C  0.54293951  0.90788262  0.33992795    -0.09500
C830        C  0.54177056  0.93012465  0.31863026     0.29300
F831        F  0.55855972  0.94968367  0.32354983    -0.20100
H832        H  0.52015469  0.95166940  0.28064451     0.17700
H833        H  0.52533560  0.87125741  0.35169195     0.17700
F834        F  0.48679367  0.87312484  0.30954959    -0.20000
C835        C  0.45889159  0.93121023  0.07004164    -0.21500
C836        C  0.45900163  0.90933303  0.09212285    -0.09500
C837        C  0.47867986  0.89105195  0.08864544     0.29300
C838        C  0.49856070  0.89533714  0.06508051    -0.21500
C839        C  0.49913368  0.91777987  0.04409630    -0.09500
C840        C  0.47860561  0.93534347  0.04600186     0.29300
F841        F  0.47825195  0.95713160  0.02605481    -0.20100
H842        H  0.44459210  0.94620778  0.07352428     0.17700
H843        H  0.51368090  0.88102141  0.06342739     0.17700
F844        F  0.48015773  0.87045599  0.11072919    -0.20000
C845        C  0.54885394  0.67280665  0.43257020    -0.21500
C846        C  0.57066308  0.65682947  0.43303791    -0.09500
C847        C  0.56755013  0.62974145  0.43371811     0.29300
C848        C  0.54319513  0.61909398  0.43406451    -0.21500
C849        C  0.52158209  0.63510478  0.43468499    -0.09500
C850        C  0.52447153  0.66204549  0.43388998     0.29300
F851        F  0.50804553  0.67549363  0.94819819    -0.20100
H852        H  0.55067211  0.69365686  0.43171979     0.17700
H853        H  0.54121694  0.59825710  0.43543234     0.17700
F854        F  0.58792990  0.61342500  0.43423220    -0.20000
C855        C  0.62849181  0.79708708  0.45150476    -0.21500
C856        C  0.61397375  0.77610648  0.43985512    -0.09500
C857        C  0.58810363  0.78009100  0.43139526     0.29300
C858        C  0.57710076  0.80472186  0.43447231    -0.21500
C859        C  0.59185236  0.82589406  0.44507483    -0.09500
C860        C  0.61769628  0.82180402  0.45373103     0.29300
F861        F  0.63248433  0.84158594  0.46490014    -0.20100
H862        H  0.64850073  0.79450509  0.45784591     0.17700
H863        H  0.55711704  0.80733834  0.42802359     0.17700
F864        F  0.57342998  0.76015522  0.42040739    -0.20000
C865        C  0.73914177  0.65392194  0.48712748    -0.21500
C866        C  0.73027468  0.67818193  0.47523038    -0.09500
C867        C  0.74475545  0.65386635  0.97647216     0.29300
C868        C  0.76325101  0.65208234  0.00324945    -0.21500
C869        C  0.77186430  0.67425183  0.02089932    -0.09500
C870        C  0.75649223  0.65182573  0.51517761     0.29300
F871        F  0.76527375  0.62803082  0.52455032    -0.20100
H872        H  0.73230537  0.63642474  0.47487672     0.17700
H873        H  0.77078063  0.63322663  0.01038273     0.17700
F874        F  0.73607891  0.63179179  0.96164119    -0.20000
C875        C  0.92409868  0.19444825  0.19647059    -0.21500
C876        C  0.91270307  0.17269178  0.18093767    -0.09500
C877        C  0.89416741  0.17665604  0.15479752     0.29300
C878        C  0.88565905  0.20160355  0.14676850    -0.21500
C879        C  0.89530720  0.22317504  0.16448416    -0.09500
C880        C  0.91539581  0.21957918  0.18841671     0.29300
F881        F  0.92502208  0.24000890  0.20613223    -0.20100
H882        H  0.93864197  0.19193906  0.21637580     0.17700
H883        H  0.87049669  0.20400786  0.12776992     0.17700
F884        F  0.88361996  0.15636506  0.13772030    -0.20000
C885        C  0.03197034  0.13090086  0.22602807    -0.21500
C886        C  0.02034023  0.11889453  0.19704312    -0.09500
C887        C  0.03346945  0.11817327  0.16511552     0.29300
C888        C  0.05726077  0.12990952  0.16210532    -0.21500
C889        C  0.06859279  0.14247017  0.19078624    -0.09500
C890        C  0.05589700  0.14253374  0.22302584     0.29300
F891        F  0.06599258  0.15477334  0.25112423    -0.20100
H892        H  0.02242137  0.13152499  0.25110812     0.17700
H893        H  0.06673130  0.12946683  0.13695070     0.17700
F894        F  0.02308945  0.10684907  0.13650249    -0.20000
C895        C  0.91858817  0.79842312  0.06597093    -0.21500
C896        C  0.90176999  0.81964882  0.06907657    -0.09500
C897        C  0.87543030  0.81502137  0.07250323     0.29300
C898        C  0.86624558  0.78979300  0.07173876    -0.21500
C899        C  0.88306555  0.76884251  0.06819738    -0.09500
C900        C  0.90932736  0.77316245  0.06582676     0.29300
F901        F  0.92586794  0.75302174  0.06252766    -0.20100
H902        H  0.93891166  0.80136143  0.06305398     0.17700
H903        H  0.84594645  0.78653314  0.07455147     0.17700
F904        F  0.85843303  0.83476175  0.07590698    -0.20000
C905        C  0.89608884  0.00735461  0.13338127    -0.21500
C906        C  0.91883628  0.01251327  0.15167016    -0.09500
C907        C  0.94193226  0.00310689  0.13763919     0.29300
C908        C  0.94204800  0.98849199  0.10680654    -0.21500
C909        C  0.91918791  0.98240255  0.08948315    -0.09500
C910        C  0.89618055  0.99229433  0.10295719     0.29300
F911        F  0.87367392  0.98677430  0.08712101    -0.20100
H912        H  0.87814820  0.01529526  0.14252671     0.17700
H913        H  0.95999635  0.98052832  0.09772115     0.17700
F914        F  0.96455625  0.00838963  0.15329300    -0.20000
C915        C  0.06242755  0.29485877  0.21018791    -0.21500
C916        C  0.06956110  0.31520414  0.18772483    -0.09500
C917        C  0.07996707  0.30926681  0.15495536     0.29300
C918        C  0.08521864  0.28360896  0.14619874    -0.21500
C919        C  0.08086233  0.26345420  0.17019572    -0.09500
C920        C  0.06838602  0.26911630  0.20173359     0.29300
F921        F  0.06467688  0.25024286  0.22594425    -0.20100
H922        H  0.05404601  0.29904112  0.23542206     0.17700
H923        H  0.09528353  0.27976224  0.12208793     0.17700
F924        F  0.08615653  0.32834937  0.13204317    -0.20000
C925        C  0.93616025  0.35640366  0.15851872    -0.21500
C926        C  0.92393786  0.34434665  0.18695811    -0.09500
C927        C  0.93492681  0.34618166  0.22037135     0.29300
C928        C  0.95788716  0.35932727  0.22495117    -0.21500
C929        C  0.97020201  0.37131074  0.19650973    -0.09500
C930        C  0.95883426  0.37008638  0.16323292     0.29300
F931        F  0.96973812  0.38169686  0.13514467    -0.20100
H932        H  0.92798396  0.35550767  0.13251886     0.17700
H933        H  0.96605034  0.36008947  0.25096815     0.17700
F934        F  0.92384766  0.33479604  0.24850702    -0.20000
C935        C  0.05464359  0.50663782  0.11154031    -0.21500
C936        C  0.07798941  0.51256202  0.09539923    -0.09500
C937        C  0.10035328  0.50112755  0.10917975     0.29300
C938        C  0.09908993  0.48343476  0.13731565    -0.21500
C939        C  0.07571375  0.47787959  0.15380637    -0.09500
C940        C  0.05350669  0.49004438  0.14065640     0.29300
F941        F  0.03036442  0.48504096  0.15493911    -0.20100
H942        H  0.03720116  0.51586261  0.10255409     0.17700
H943        H  0.11642023  0.47393165  0.14616081     0.17700
F944        F  0.12342965  0.50704749  0.09538547    -0.20000
C945        C  0.93484145  0.62223179  0.06187077    -0.21500
C946        C  0.93174827  0.64916318  0.06537043    -0.09500
C947        C  0.95375883  0.66467177  0.06757092     0.29300
C948        C  0.97809629  0.65341998  0.06514639    -0.21500
C949        C  0.98093838  0.62655572  0.06172693    -0.09500
C950        C  0.95913681  0.61100854  0.06035665     0.29300
F951        F  0.98361784  0.66570359  0.51786380    -0.20100
H952        H  0.93739853  0.68153532  0.53003596     0.17700
H953        H  0.99477397  0.66567852  0.06591550     0.17700
F954        F  0.95185911  0.69068431  0.07157753    -0.20000
C955        C  0.38937444  0.40980135  0.17980500    -0.21500
C956        C  0.37948185  0.40380387  0.21299642    -0.09500
C957        C  0.35631357  0.39026006  0.21470032     0.29300
C958        C  0.34538451  0.37991495  0.18417861    -0.21500
C959        C  0.35708726  0.38330879  0.15140363    -0.09500
C960        C  0.37823593  0.39984823  0.14929108     0.29300
F961        F  0.39053263  0.40300034  0.11836920    -0.20100
H962        H  0.40750856  0.41963137  0.17774678     0.17700
H963        H  0.32952638  0.36670655  0.18672817     0.17700
F964        F  0.34618558  0.38397494  0.24619135    -0.20000
C965        C  0.31057538  0.27494625  0.42376771    -0.21500
C966        C  0.32973546  0.25620987  0.41943000    -0.09500
C967        C  0.35346932  0.25987560  0.43615002     0.29300
C968        C  0.35716965  0.28081967  0.45864375    -0.21500
C969        C  0.33720211  0.29811123  0.46558821    -0.09500
C970        C  0.31411596  0.29552001  0.44692782     0.29300
F971        F  0.29411527  0.31149130  0.45379512    -0.20100
H972        H  0.29250442  0.27310300  0.41024099     0.17700
H973        H  0.36655883  0.25591343  0.00099149     0.17700
F974        F  0.37314800  0.24316206  0.43087366    -0.20000
C975        C  0.35439285  0.23199489  0.21126120    -0.21500
C976        C  0.33386704  0.21515473  0.21601786    -0.09500
C977        C  0.31164826  0.21892418  0.19571357     0.29300
C978        C  0.30951361  0.24003248  0.17279826    -0.21500
C979        C  0.32921289  0.25817559  0.17028078    -0.09500
C980        C  0.35213835  0.25335878  0.18878190     0.29300
F981        F  0.37245795  0.26930201  0.18524550    -0.20100
H982        H  0.37134715  0.22998566  0.22733505     0.17700
H983        H  0.29208483  0.24269421  0.15791206     0.17700
F984        F  0.29109531  0.20345349  0.20052172    -0.20000
C985        C  0.36206877  0.20920023  0.06112087    -0.21500
C986        C  0.37659490  0.22904427  0.07587927    -0.09500
C987        C  0.40182449  0.22397227  0.08664085     0.29300
C988        C  0.41245801  0.19949900  0.08182035    -0.21500
C989        C  0.39791190  0.17970353  0.06707376    -0.09500
C990        C  0.37249386  0.18458034  0.05712172     0.29300
F991        F  0.35801530  0.16583817  0.04241735    -0.20100
H992        H  0.34254620  0.21269948  0.05293713     0.17700
H993        H  0.43205320  0.19597202  0.08964808     0.17700
F994        F  0.41642550  0.24279011  0.10093152    -0.20000
C995        C  0.24002015  0.30039296  0.49486748    -0.21500
C996        C  0.23332477  0.32279057  0.47580739    -0.09500
C997        C  0.22750100  0.33835737  0.01037802     0.29300
C998        C  0.24774228  0.33833595  0.03445751    -0.21500
C999        C  0.27277372  0.33518369  0.02282987    -0.09500
C1000       C  0.25544922  0.30176084  0.52486856     0.29300
F1001       F  0.26192484  0.27945553  0.54160404    -0.20100
H1002       H  0.23251900  0.28177419  0.48721751     0.17700
H1003       H  0.24388118  0.34103555  0.06201799     0.17700
F1004       F  0.20360290  0.34273897  0.02260035    -0.20000
C1005       C  0.13018410  0.39032218  0.34488189    -0.21500
C1006       C  0.14832358  0.37050128  0.34050878    -0.09500
C1007       C  0.15451389  0.36287917  0.30619228     0.29300
C1008       C  0.14069656  0.37264520  0.27743291    -0.21500
C1009       C  0.12028308  0.38991501  0.28245536    -0.09500
C1010       C  0.11597582  0.39966649  0.31624642     0.29300
F1011       F  0.09619085  0.41612981  0.32210020    -0.20100
H1012       H  0.12465891  0.39613648  0.37096660     0.17700
H1013       H  0.14405606  0.36447872  0.25179663     0.17700
F1014       F  0.17143444  0.34329909  0.30097228    -0.20000
C1015       C  0.17736955  0.29186683  0.05947950    -0.21500
C1016       C  0.15578741  0.29656804  0.03805888    -0.09500
C1017       C  0.13308168  0.28383594  0.04538153     0.29300
C1018       C  0.13269441  0.26485176  0.07111901    -0.21500
C1019       C  0.15476402  0.25843566  0.09082140    -0.09500
C1020       C  0.17679881  0.27316992  0.08610096     0.29300
F1021       F  0.19810559  0.26842270  0.10535454    -0.20100
H1022       H  0.19928343  0.29802043  0.55061292     0.17700
H1023       H  0.11500849  0.25443905  0.07452508     0.17700
F1024       F  0.11228071  0.28708894  0.02454299    -0.20000
C1025       C  0.17305759  0.22545129  0.34001046    -0.21500
C1026       C  0.18000970  0.25123650  0.33272038    -0.09500
C1027       C  0.17829004  0.26063236  0.29848528     0.29300
C1028       C  0.16645022  0.24587588  0.27318260    -0.21500
C1029       C  0.15678661  0.22122589  0.28128357    -0.09500
C1030       C  0.16138526  0.21042867  0.31430013     0.29300
F1031       F  0.15270592  0.18648687  0.32248730    -0.20100
H1032       H  0.17402136  0.21791250  0.36646471     0.17700
H1033       H  0.16430873  0.25409878  0.24721348     0.17700
F1034       F  0.18563103  0.28508926  0.29042292    -0.20000
C1035       C  0.97184806  0.89375679  0.20535512    -0.21500
C1036       C  0.98254683  0.91776153  0.21534960    -0.09500
C1037       C  0.97029818  0.94053447  0.20454779     0.29300
C1038       C  0.95035595  0.93907920  0.18006045    -0.21500
C1039       C  0.94269803  0.91505835  0.16602639    -0.09500
C1040       C  0.95212691  0.89237847  0.18108465     0.29300
F1041       F  0.94522116  0.86892162  0.16846669    -0.20100
H1042       H  0.97981700  0.87562025  0.21470357     0.17700
H1043       H  0.94276095  0.95679566  0.16915465     0.17700
F1044       F  0.97887084  0.96396170  0.21504869    -0.20000
C1045       C  0.01221626  0.88675593  0.42105808    -0.21500
C1046       C  0.02814502  0.90712154  0.41129835    -0.09500
C1047       C  0.02563532  0.93118859  0.42800934     0.29300
C1048       C  0.00595986  0.93519243  0.45218475    -0.21500
C1049       C  0.98821823  0.91552643  0.45867717    -0.09500
C1050       C  0.99204479  0.89099667  0.44372779     0.29300
F1051       F  0.97613143  0.87100735  0.45072984    -0.20100
H1052       H  0.01360898  0.86825856  0.40791815     0.17700
H1053       H  0.00384601  0.95390157  0.46451790     0.17700
F1054       F  0.04034634  0.95146781  0.41819787    -0.20000
C1055       C  0.13584299  0.12017674  0.03322236    -0.21500
C1056       C  0.11549458  0.10310301  0.03893162    -0.09500
C1057       C  0.10969306  0.09620070  0.07380295     0.29300
C1058       C  0.12191357  0.10837798  0.10201324    -0.21500
C1059       C  0.13972619  0.12812893  0.09613633    -0.09500
C1060       C  0.14764962  0.13279146  0.06142762     0.29300
F1061       F  0.16486390  0.15163365  0.05453388    -0.20100
H1062       H  0.14051844  0.12621316  0.00684754     0.17700
H1063       H  0.11512599  0.10456839  0.12826905     0.17700
F1064       F  0.09018044  0.07980221  0.08063964    -0.20000
C1065       C  0.10399214  0.18961712  0.46786318    -0.21500
C1066       C  0.09675603  0.17469145  0.43871280    -0.09500
C1067       C  0.10314709  0.18357126  0.40510038     0.29300
C1068       C  0.11615137  0.20703742  0.40099223    -0.21500
C1069       C  0.12338401  0.22183976  0.43026828    -0.09500
C1070       C  0.11718384  0.21280829  0.46379320     0.29300
F1071       F  0.12309445  0.22678098  0.49264447    -0.20100
H1072       H  0.09941062  0.18333568  0.49416405     0.17700
H1073       H  0.12061739  0.21363898  0.37480765     0.17700
F1074       F  0.09632909  0.17000686  0.37628098    -0.20000
C1075       C  0.08365523  0.98663413  0.36979444    -0.21500
C1076       C  0.06258838  0.98254374  0.34720818    -0.09500
C1077       C  0.04132813  0.99902048  0.35109633     0.29300
C1078       C  0.04030230  0.01733243  0.37768738    -0.21500
C1079       C  0.06073808  0.02128339  0.40107666    -0.09500
C1080       C  0.08296373  0.00613007  0.39606462     0.29300
F1081       F  0.10350684  0.00939333  0.41717107    -0.20100
H1082       H  0.10017437  0.97403215  0.36818048     0.17700
H1083       H  0.02310621  0.02898029  0.37930629     0.17700
F1084       F  0.02066609  0.99681417  0.32985770    -0.20000
C1085       C  0.97357302  0.06510471  0.04386059    -0.21500
C1086       C  0.98865223  0.08727444  0.04125896    -0.09500
C1087       C  0.98166018  0.10952363  0.06090218     0.29300
C1088       C  0.96103256  0.10902926  0.08335135    -0.21500
C1089       C  0.94800083  0.08611593  0.08888649    -0.09500
C1090       C  0.95352715  0.06438486  0.06798479     0.29300
F1091       F  0.94085768  0.04190763  0.07306677    -0.20100
H1092       H  0.97796691  0.04810139  0.02851785     0.17700
H1093       H  0.95752008  0.12565392  0.09990951     0.17700
F1094       F  0.99538633  0.13172667  0.06012806    -0.20000
C1095       C  0.03156974  0.06987885  0.32276158    -0.21500
C1096       C  0.02779253  0.09287329  0.34158321    -0.09500
C1097       C  0.00761198  0.10939041  0.33225409     0.29300
C1098       C  0.98920988  0.10117364  0.30886036    -0.21500
C1099       C  0.99115060  0.07686555  0.29277760    -0.09500
C1100       C  0.01337760  0.06194870  0.29806189     0.29300
F1101       F  0.01676054  0.03924656  0.28097260    -0.20100
H1102       H  0.04726496  0.05705909  0.32936242     0.17700
H1103       H  0.97317715  0.11394095  0.30358566     0.17700
F1104       F  0.00399333  0.13214165  0.34923639    -0.20000
C1105       C  0.55665186  0.15819936  0.03700701    -0.21500
C1106       C  0.56812020  0.15897511  0.07015929    -0.09500
C1107       C  0.55415803  0.15025908  0.09942609     0.29300
C1108       C  0.52940557  0.14088967  0.09539274    -0.21500
C1109       C  0.51788993  0.14023320  0.06230624    -0.09500
C1110       C  0.53174748  0.14906818  0.03303845     0.29300
F1111       F  0.52166546  0.14797367  0.00035620    -0.20100
H1112       H  0.56696637  0.16468269  0.01410382     0.17700
H1113       H  0.51928635  0.13392594  0.11821353     0.17700
F1114       F  0.56459596  0.15011737  0.13195432    -0.20000
C1115       C  0.67615165  0.21987433  0.45237308    -0.21500
C1116       C  0.65306224  0.22020863  0.47085729    -0.09500
C1117       C  0.63437678  0.23871016  0.46235272     0.29300
C1118       C  0.63962068  0.25799243  0.43808075    -0.21500
C1119       C  0.66337961  0.25886586  0.42126384    -0.09500
C1120       C  0.68124362  0.23895578  0.42736011     0.29300
F1121       F  0.70408643  0.23879461  0.41072072    -0.20100
H1122       H  0.69117740  0.20644968  0.45959427     0.17700
H1123       H  0.62504141  0.27240641  0.43261073     0.17700
F1124       F  0.61206587  0.23968489  0.48032329    -0.20000
C1125       C  0.65029358  0.27583968  0.16897755    -0.21500
C1126       C  0.67159196  0.25916966  0.16419929    -0.09500
C1127       C  0.69462866  0.26547842  0.18032696     0.29300
C1128       C  0.69521456  0.28587195  0.20431879    -0.21500
C1129       C  0.67269088  0.29969307  0.21333312    -0.09500
C1130       C  0.65074693  0.29584058  0.19339806     0.29300
F1131       F  0.62895361  0.30915451  0.20031533    -0.20100
H1132       H  0.63250895  0.27235546  0.15535438     0.17700
H1133       H  0.71271397  0.28893685  0.21878962     0.17700
F1134       F  0.71577388  0.25065990  0.17552116    -0.20000
C1135       C  0.61965544  0.11275125  0.15351602    -0.21500
C1136       C  0.64052477  0.12933958  0.15842012    -0.09500
C1137       C  0.65039123  0.13202519  0.19254894     0.29300
C1138       C  0.63791407  0.12079692  0.22130277    -0.21500
C1139       C  0.61513008  0.10707431  0.21673917    -0.09500
C1140       C  0.60680318  0.10207557  0.18238550     0.29300
F1141       F  0.58446314  0.08955189  0.17696999    -0.20100
H1142       H  0.61122951  0.11078503  0.12777187     0.17700
H1143       H  0.64433404  0.12553984  0.24744163     0.17700
F1144       F  0.67033292  0.14804027  0.19852978    -0.20000
C1145       C  0.95155015  0.14220170  0.47472278    -0.21500
C1146       C  0.97196427  0.15061126  0.45381374    -0.09500
C1147       C  0.96651893  0.16670353  0.42500516     0.29300
C1148       C  0.94097279  0.17300903  0.41661198    -0.21500
C1149       C  0.92059555  0.16357562  0.43706768    -0.09500
C1150       C  0.92634402  0.14868851  0.46684190     0.29300
F1151       F  0.90749966  0.13857054  0.48690793    -0.20100
H1152       H  0.95492759  0.12877304  0.49593083     0.17700
H1153       H  0.93706973  0.18472625  0.39364822     0.17700
F1154       F  0.98555596  0.17459053  0.40356134    -0.20000
C1155       C  0.88372205  0.09422848  0.31973954    -0.21500
C1156       C  0.87352942  0.09725577  0.28587866    -0.09500
C1157       C  0.84937829  0.10880000  0.28214175     0.29300
C1158       C  0.83741996  0.12021822  0.31115166    -0.21500
C1159       C  0.84921949  0.12001638  0.34435282    -0.09500
C1160       C  0.87162310  0.10526275  0.34882043     0.29300
F1161       F  0.88400720  0.10504283  0.38004199    -0.20100
H1162       H  0.90253383  0.08576646  0.32314153     0.17700
H1163       H  0.82030244  0.13166071  0.30690048     0.17700
F1164       F  0.83912639  0.11230938  0.24983255    -0.20000
C1165       C  0.82712728  0.20697244  0.06388166    -0.21500
C1166       C  0.82663506  0.21890760  0.03097982    -0.09500
C1167       C  0.81548461  0.24378979  0.02740400     0.29300
C1168       C  0.80881398  0.25782175  0.05678207    -0.21500
C1169       C  0.81280113  0.24719903  0.08981428    -0.09500
C1170       C  0.81949150  0.22093938  0.09326540     0.29300
F1171       F  0.82224910  0.21013505  0.12547225    -0.20100
H1172       H  0.83481460  0.18761605  0.06710862     0.17700
H1173       H  0.80366877  0.27806187  0.05387494     0.17700
F1174       F  0.81123761  0.25900389  0.49209077    -0.20000
C1175       C  0.81985448  0.28260720  0.30799412    -0.21500
C1176       C  0.82726902  0.27212121  0.27583049    -0.09500
C1177       C  0.81789879  0.24738338  0.26658956     0.29300
C1178       C  0.80539021  0.23209288  0.29102897    -0.21500
C1179       C  0.80276084  0.24062109  0.32533588    -0.09500
C1180       C  0.80712288  0.26698038  0.33248531     0.29300
F1181       F  0.80271750  0.27631507  0.36500115    -0.20100
H1182       H  0.82528299  0.30209140  0.31497200     0.17700
H1183       H  0.80164043  0.21205680  0.28468106     0.17700
F1184       F  0.82196130  0.23714208  0.23442356    -0.20000
C1185       C  0.74062691  0.16410341  0.46827386    -0.21500
C1186       C  0.76581745  0.16923052  0.47862792    -0.09500
C1187       C  0.77364936  0.16554650  0.01958884     0.29300
C1188       C  0.75269763  0.16719700  0.04256126    -0.21500
C1189       C  0.72764522  0.16574371  0.02987196    -0.09500
C1190       C  0.72051303  0.16477159  0.49294101     0.29300
F1191       F  0.69642563  0.15987893  0.48189996    -0.20100
H1192       H  0.73634296  0.16068556  0.44097573     0.17700
H1193       H  0.75608121  0.17003737  0.07022639     0.17700
F1194       F  0.79740896  0.16608092  0.03330466    -0.20000
C1195       C  0.63978153  0.37957057  0.47106484    -0.21500
C1196       C  0.62027117  0.39827375  0.46914651    -0.09500
C1197       C  0.61440748  0.40908604  0.43618666     0.29300
C1198       C  0.62610126  0.39954292  0.40562858    -0.21500
C1199       C  0.64378834  0.37897750  0.40728021    -0.09500
C1200       C  0.65138059  0.36997949  0.44057252     0.29300
F1201       F  0.66758021  0.34949151  0.44336040    -0.20100
H1202       H  0.64410804  0.37033502  0.49588769     0.17700
H1203       H  0.61925013  0.40628630  0.38042455     0.17700
F1204       F  0.59520474  0.42668915  0.43310966    -0.20000
C1205       C  0.47649894  0.43150410  0.45403373    -0.21500
C1206       C  0.49732167  0.41435032  0.45563992    -0.09500
C1207       C  0.49606303  0.39100444  0.43670692     0.29300
C1208       C  0.47545367  0.38619479  0.41444971    -0.21500
C1209       C  0.45599035  0.40462992  0.41019041    -0.09500
C1210       C  0.45605181  0.42674877  0.43150568     0.29300
F1211       F  0.43798116  0.44540397  0.42700713    -0.20100
H1212       H  0.47648385  0.44911299  0.46928033     0.17700
H1213       H  0.47620530  0.36941829  0.39757003     0.17700
F1214       F  0.51484671  0.37289006  0.43929164    -0.20000
C1215       C  0.54376636  0.42534095  0.18332803    -0.21500
C1216       C  0.54287132  0.40447855  0.15993967    -0.09500
C1217       C  0.52278696  0.38680029  0.16256743     0.29300
C1218       C  0.50260191  0.39150904  0.18549858    -0.21500
C1219       C  0.50244886  0.41351891  0.20704988    -0.09500
C1220       C  0.52393243  0.42968091  0.20705624     0.29300
F1221       F  0.52516001  0.45043875  0.22857940    -0.20100
H1222       H  0.55866645  0.43967496  0.18090687     0.17700
H1223       H  0.48692975  0.37795551  0.18614608     0.17700
F1224       F  0.52121280  0.36664957  0.14002025    -0.20000
C1225       C  0.63021445  0.29488596  0.06583280    -0.21500
C1226       C  0.61439610  0.27313735  0.06929240    -0.09500
C1227       C  0.58778144  0.27662654  0.06766977     0.29300
C1228       C  0.57744017  0.30143790  0.06274181    -0.21500
C1229       C  0.59341658  0.32311603  0.05979414    -0.09500
C1230       C  0.61997364  0.31951625  0.06131222     0.29300
F1231       F  0.63624258  0.33970112  0.05783278    -0.20100
H1232       H  0.65078402  0.29302528  0.06709353     0.17700
H1233       H  0.55690740  0.30371571  0.06146762     0.17700
F1234       F  0.57176798  0.25623303  0.07085132    -0.20000
C1235       C  0.46618669  0.36604526  0.09092623    -0.21500
C1236       C  0.47862386  0.36351874  0.05862598    -0.09500
C1237       C  0.46726709  0.34854088  0.03204003     0.29300
C1238       C  0.44362157  0.33707313  0.03760365    -0.21500
C1239       C  0.43119924  0.34022400  0.06956326    -0.09500
C1240       C  0.44259319  0.35450460  0.09635717     0.29300
F1241       F  0.43031938  0.35823090  0.12717569    -0.20100
H1242       H  0.47434042  0.37756543  0.11166883     0.17700
H1243       H  0.43455180  0.32656319  0.01655707     0.17700
F1244       F  0.45305779  0.41368155  0.56062565    -0.20000
C1245       C  0.64017876  0.61654662  0.28481358    -0.21500
C1246       C  0.61864269  0.60096135  0.29057451    -0.09500
C1247       C  0.61156895  0.59594049  0.32545844     0.29300
C1248       C  0.62393775  0.60833839  0.35337047    -0.21500
C1249       C  0.64320831  0.62659193  0.34730316    -0.09500
C1250       C  0.65205117  0.62965258  0.31274698     0.29300
F1251       F  0.67026970  0.64741586  0.30552903    -0.20100
H1252       H  0.64592287  0.62101284  0.25831325     0.17700
H1253       H  0.61632564  0.60599183  0.37946719     0.17700
F1254       F  0.59057130  0.58156010  0.33230089    -0.20000
C1255       C  0.49319950  0.60571347  0.31387080    -0.21500
C1256       C  0.49229031  0.58345175  0.29288663    -0.09500
C1257       C  0.46980087  0.56877963  0.29252202     0.29300
C1258       C  0.44998762  0.57464875  0.31579368    -0.21500
C1259       C  0.45201282  0.59560344  0.33896994    -0.09500
C1260       C  0.47308122  0.61204274  0.33611542     0.29300
F1261       F  0.47584614  0.63220145  0.35843138    -0.20100
H1262       H  0.50971858  0.61819803  0.31339461     0.17700
H1263       H  0.43427277  0.56125157  0.31831144     0.17700
F1264       F  0.46762841  0.54789178  0.27138025    -0.20000
C1265       C  0.54366807  0.57616464  0.07008057    -0.21500
C1266       C  0.54278856  0.59761412  0.09260633    -0.09500
C1267       C  0.52349370  0.61617094  0.08779331     0.29300
C1268       C  0.50372441  0.61166730  0.06405051    -0.21500
C1269       C  0.50317934  0.58891456  0.04393844    -0.09500
C1270       C  0.52417250  0.57189785  0.04571525     0.29300
F1271       F  0.52239290  0.54763431  0.52662682    -0.20100
H1272       H  0.55801136  0.56123531  0.07401662     0.17700
H1273       H  0.48849360  0.62584746  0.06193818     0.17700
F1274       F  0.52193350  0.63694356  0.10930745    -0.20000
C1275       C  0.54466456  0.50815175  0.14045009    -0.21500
C1276       C  0.56760530  0.51774044  0.15444286    -0.09500
C1277       C  0.59058905  0.51056131  0.13784133     0.29300
C1278       C  0.59057606  0.49371148  0.10902735    -0.21500
C1279       C  0.56765663  0.48425684  0.09490399    -0.09500
C1280       C  0.54460505  0.49186586  0.11099728     0.29300
F1281       F  0.52199240  0.48249253  0.09942526    -0.20100
H1282       H  0.52656982  0.51397365  0.15164348     0.17700
H1283       H  0.60865552  0.48763006  0.09802869     0.17700
F1284       F  0.61319921  0.51984936  0.14951668    -0.20000
C1285       C  0.84656499  0.62110725  0.18417921    -0.21500
C1286       C  0.85628671  0.61657731  0.15048868    -0.09500
C1287       C  0.87528543  0.59743927  0.14669860     0.29300
C1288       C  0.88648517  0.58568350  0.17629181    -0.21500
C1289       C  0.87870203  0.59237998  0.21027699    -0.09500
C1290       C  0.85737693  0.60885857  0.21372455     0.29300
F1291       F  0.84928798  0.61590468  0.24596567    -0.20100
H1292       H  0.83243435  0.63619792  0.18803827     0.17700
H1293       H  0.90324494  0.57361779  0.17276348     0.17700
F1294       F  0.88560025  0.59290009  0.11476730    -0.20000
C1295       C  0.02594750  0.56312912  0.20495140    -0.21500
C1296       C  0.00443365  0.57941436  0.20339131    -0.09500
C1297       C  0.00522253  0.60160711  0.18184230     0.29300
C1298       C  0.02657157  0.60656322  0.16118813    -0.21500
C1299       C  0.04710716  0.58914502  0.16062582    -0.09500
C1300       C  0.04698360  0.56775212  0.18348805     0.29300
F1301       F  0.06605762  0.54988483  0.18225330    -0.20100
H1302       H  0.02615627  0.54636408  0.22204870     0.17700
H1303       H  0.02582578  0.62254102  0.14274231     0.17700
F1304       F  0.98533539  0.61852566  0.18046305    -0.20000
C1305       C  0.95957037  0.56677189  0.42801579    -0.21500
C1306       C  0.95937639  0.58791920  0.40476566    -0.09500
C1307       C  0.97889493  0.60628316  0.40714461     0.29300
C1308       C  0.99907384  0.60256265  0.43062548    -0.21500
C1309       C  0.99999555  0.58066962  0.45263720    -0.09500
C1310       C  0.97954927  0.56322032  0.45191100     0.29300
F1311       F  0.97950569  0.54204878  0.47302314    -0.20100
H1312       H  0.94540883  0.55170760  0.42542489     0.17700
H1313       H  0.01408138  0.61685897  0.43147323     0.17700
F1314       F  0.97991464  0.62629631  0.38406760    -0.20000
C1315       C  0.84613825  0.36327182  0.05878672    -0.21500
C1316       C  0.85614505  0.36688268  0.09272945    -0.09500
C1317       C  0.87709518  0.38364345  0.09629045     0.29300
C1318       C  0.88945364  0.39369391  0.06644796    -0.21500
C1319       C  0.88075698  0.38809269  0.03241492    -0.09500
C1320       C  0.85815042  0.37381132  0.02906295     0.29300
F1321       F  0.84942340  0.36738187  0.99682507    -0.20100
H1322       H  0.83027165  0.35025390  0.05495872     0.17700
H1323       H  0.90718780  0.40403919  0.06986040     0.17700
F1324       F  0.88765631  0.38764538  0.12821607    -0.20000
C1325       C  0.01926817  0.42611394  0.04266310    -0.21500
C1326       C  0.00073489  0.40685175  0.03974949    -0.09500
C1327       C  0.00262133  0.38441633  0.06071052     0.29300
C1328       C  0.02169952  0.38224717  0.08587559    -0.21500
C1329       C  0.03872373  0.40254387  0.09088346    -0.09500
C1330       C  0.03801622  0.42415849  0.06843393     0.29300
F1331       F  0.05418903  0.44423870  0.07340505    -0.20100
H1332       H  0.01862370  0.44306839  0.02592331     0.17700
H1333       H  0.02164393  0.36582624  0.10360833     0.17700
F1334       F  0.98591180  0.36463103  0.05713163    -0.20000
C1335       C  0.95440956  0.42678820  0.31434925    -0.21500
C1336       C  0.95435885  0.40305924  0.33262837    -0.09500
C1337       C  0.97424908  0.38540212  0.32667328     0.29300
C1338       C  0.99542874  0.39278197  0.30708317    -0.21500
C1339       C  0.99660720  0.41739400  0.29133944    -0.09500
C1340       C  0.97529361  0.43388928  0.29367978     0.29300
F1341       F  0.97534728  0.45744469  0.27785335    -0.20100
H1342       H  0.93970453  0.44109590  0.31949527     0.17700
H1343       H  0.01102466  0.37910939  0.30425917     0.17700
F1344       F  0.97502227  0.36253764  0.34428128    -0.20000
C1345       C  0.87903606  0.31563834  0.41461840    -0.21500
C1346       C  0.90550741  0.31598799  0.41955934    -0.09500
C1347       C  0.91955870  0.29290404  0.41510390     0.29300
C1348       C  0.90689374  0.26977194  0.40736910    -0.21500
C1349       C  0.88015813  0.26939633  0.40418811    -0.09500
C1350       C  0.86647893  0.29281265  0.40730418     0.29300
F1351       F  0.84069947  0.29381844  0.40467545    -0.20100
H1352       H  0.86763272  0.33302392  0.41768366     0.17700
H1353       H  0.91789990  0.25207349  0.40496465     0.17700
F1354       F  0.94531112  0.29253281  0.41883416    -0.20000
C1355       C  0.91039336  0.48198250  0.38355275    -0.21500
C1356       C  0.93289586  0.47503045  0.40166545    -0.09500
C1357       C  0.95616802  0.48487702  0.38882018     0.29300
C1358       C  0.95665949  0.50101178  0.35889961    -0.21500
C1359       C  0.93404219  0.50795406  0.34104310    -0.09500
C1360       C  0.91088144  0.49823571  0.35402716     0.29300
F1361       F  0.88850896  0.50473501  0.33826134    -0.20100
H1362       H  0.89221794  0.47426196  0.39187451     0.17700
H1363       H  0.97471771  0.50897424  0.35052890     0.17700
F1364       F  0.97858351  0.47820418  0.40432294    -0.20000
C1365       C  0.04474465  0.37115812  0.42189585    -0.21500
C1366       C  0.02451477  0.35515839  0.43170184    -0.09500
C1367       C  0.02937196  0.32872973  0.43831501     0.29300
C1368       C  0.05424224  0.31872093  0.43524520    -0.21500
C1369       C  0.07461354  0.33512359  0.42675915    -0.09500
C1370       C  0.06950771  0.36143095  0.41985787     0.29300
F1371       F  0.08848177  0.37789714  0.41091861    -0.20100
H1372       H  0.04154999  0.39159276  0.41706364     0.17700
H1373       H  0.05769255  0.29838037  0.44041033     0.17700
F1374       F  0.01382621  0.32103622  0.97090193    -0.20000
C1375       C  0.05039138  0.66714300  0.29234967    -0.21500
C1376       C  0.06960516  0.65544842  0.31251273    -0.09500
C1377       C  0.06458589  0.63205289  0.32992900     0.29300
C1378       C  0.04100504  0.62006989  0.32633877    -0.21500
C1379       C  0.02208634  0.63092801  0.30475911    -0.09500
C1380       C  0.02683817  0.65486886  0.28809531     0.29300
F1381       F  0.00890851  0.66628790  0.26742044    -0.20100
H1382       H  0.05392457  0.68529880  0.27901923     0.17700
H1383       H  0.03789818  0.60179464  0.33958232     0.17700
F1384       F  0.08254102  0.62079288  0.35061726    -0.20000
C1385       C  0.14059859  0.62385322  0.46776126    -0.21500
C1386       C  0.12114879  0.60532869  0.46566350    -0.09500
C1387       C  0.11539439  0.59491762  0.43262206     0.29300
C1388       C  0.12732343  0.60441372  0.40223263    -0.21500
C1389       C  0.14454795  0.62511639  0.40392998    -0.09500
C1390       C  0.15210936  0.63373142  0.43728857     0.29300
F1391       F  0.16805673  0.65420469  0.44013722    -0.20100
H1392       H  0.14485450  0.63280114  0.49264927     0.17700
H1393       H  0.12075631  0.59772128  0.37701237     0.17700
F1394       F  0.09597337  0.57785931  0.42925200    -0.20000
C1395       C  0.10445791  0.81268818  0.28283819    -0.21500
C1396       C  0.09426830  0.82541785  0.31218605    -0.09500
C1397       C  0.09497463  0.81286211  0.34482106     0.29300
C1398       C  0.10508895  0.78773147  0.34753383    -0.21500
C1399       C  0.11492468  0.77495220  0.31788778    -0.09500
C1400       C  0.11471018  0.78787382  0.28555582     0.29300
F1401       F  0.12396159  0.77641779  0.25629804    -0.20100
H1402       H  0.10435512  0.82194258  0.25735341     0.17700
H1403       H  0.10542266  0.77833743  0.37291552     0.17700
F1404       F  0.08529107  0.82445833  0.37371517    -0.20000
C1405       C  0.34548054  0.63604805  0.05961252    -0.21500
C1406       C  0.35341923  0.62979607  0.09379828    -0.09500
C1407       C  0.37195919  0.61023544  0.09816183     0.29300
C1408       C  0.38419601  0.59932262  0.06899215    -0.21500
C1409       C  0.37792554  0.60735063  0.03485346    -0.09500
C1410       C  0.35746695  0.62484393  0.03040268     0.29300
F1411       F  0.34748021  0.62237671  0.50266421    -0.20100
H1412       H  0.33193701  0.65167868  0.05544907     0.17700
H1413       H  0.40038718  0.58655930  0.07323011     0.17700
F1414       F  0.38082824  0.60440114  0.13065158    -0.20000
C1415       C  0.43528237  0.64355803  0.16074389    -0.21500
C1416       C  0.42458489  0.65783765  0.18813732    -0.09500
C1417       C  0.43795739  0.66060770  0.21955096     0.29300
C1418       C  0.46188350  0.64893335  0.22358731    -0.21500
C1419       C  0.47276236  0.63432034  0.19629089    -0.09500
C1420       C  0.45922017  0.63189702  0.16461712     0.29300
F1421       F  0.46887039  0.61811452  0.13751804    -0.20100
H1422       H  0.42496571  0.64134425  0.13635391     0.17700
H1423       H  0.47166407  0.65095285  0.24839673     0.17700
F1424       F  0.42763458  0.67410989  0.24646130    -0.20000
C1425       C  0.25689133  0.65764659  0.23235827    -0.21500
C1426       C  0.26438182  0.68144788  0.21754745    -0.09500
C1427       C  0.25359638  0.70426275  0.23140108     0.29300
C1428       C  0.23627740  0.70315683  0.25946541    -0.21500
C1429       C  0.22883571  0.67934047  0.27418332    -0.09500
C1430       C  0.23909119  0.65653779  0.25980138     0.29300
F1431       F  0.23203569  0.63310989  0.27253428    -0.20100
H1432       H  0.26533614  0.63977436  0.22311331     0.17700
H1433       H  0.22799717  0.72102699  0.26899047     0.17700
F1434       F  0.26073328  0.72778024  0.21906510    -0.20000
C1435       C  0.40803739  0.77956469  0.17646393    -0.21500
C1436       C  0.38400297  0.77523320  0.19174394    -0.09500
C1437       C  0.37229993  0.79522042  0.21079973     0.29300
C1438       C  0.38374060  0.81946823  0.21248918    -0.21500
C1439       C  0.40726883  0.82395443  0.19619554    -0.09500
C1440       C  0.41977267  0.80366486  0.17903833     0.29300
F1441       F  0.44266951  0.80750576  0.16340868    -0.20100
H1442       H  0.41751318  0.76441833  0.16182803     0.17700
H1443       H  0.37418414  0.83484930  0.22653322     0.17700
F1444       F  0.34929690  0.79180294  0.22633842    -0.20000
C1445       C  0.02054457  0.84070956  0.05747765    -0.21500
C1446       C  0.01684487  0.86714433  0.06456979    -0.09500
C1447       C  0.03814549  0.88238420  0.07256538     0.29300
C1448       C  0.06268130  0.87149318  0.07234732    -0.21500
C1449       C  0.06647389  0.84509779  0.06487251    -0.09500
C1450       C  0.04501668  0.82964933  0.05814701     0.29300
F1451       F  0.04769449  0.80403703  0.05130528    -0.20100
H1452       H  0.00440759  0.82862940  0.05100850     0.17700
H1453       H  0.07878692  0.88375850  0.07828014     0.17700
F1454       F  0.03541171  0.90807344  0.07883275    -0.20000
C1455       C  0.13104885  0.87579480  0.22043885    -0.21500
C1456       C  0.11348588  0.89618988  0.21571542    -0.09500
C1457       C  0.11057275  0.90664401  0.18178095     0.29300
C1458       C  0.12299428  0.89528925  0.15296649    -0.21500
C1459       C  0.13830315  0.87307271  0.15725022    -0.09500
C1460       C  0.14300189  0.86410309  0.19156757     0.29300
F1461       F  0.15674049  0.84206715  0.19677127    -0.20100
H1462       H  0.13324364  0.86688687  0.24598136     0.17700
H1463       H  0.11835696  0.90212855  0.12688273     0.17700
F1464       F  0.09384340  0.92635145  0.17603365    -0.20000
C1465       C  0.13645381  0.74496093  0.18016273    -0.21500
C1466       C  0.15972643  0.74812562  0.16234009    -0.09500
C1467       C  0.17842499  0.72866927  0.16527917     0.29300
C1468       C  0.17479204  0.70789839  0.18828136    -0.21500
C1469       C  0.15242461  0.70604981  0.20843678    -0.09500
C1470       C  0.13270518  0.72398904  0.20271662     0.29300
F1471       F  0.11111361  0.72305526  0.22222698    -0.20100
H1472       H  0.12120472  0.75903109  0.17709621     0.17700
H1473       H  0.19058227  0.69472587  0.19317394     0.17700
F1474       F  0.20083386  0.73058972  0.14777777    -0.20000
C1475       C  0.17032272  0.78540376  0.44557926    -0.21500
C1476       C  0.14866003  0.78202708  0.46658464    -0.09500
C1477       C  0.13182876  0.76176604  0.45952941     0.29300
C1478       C  0.13802675  0.74345481  0.43464414    -0.21500
C1479       C  0.16072108  0.74538643  0.41543612    -0.09500
C1480       C  0.17628431  0.76720788  0.41976271     0.29300
F1481       F  0.19774480  0.77020076  0.40041432    -0.20100
H1482       H  0.18361519  0.80081849  0.45104158     0.17700
H1483       H  0.12493396  0.72761776  0.43049444     0.17700
F1484       F  0.11063690  0.75826022  0.47935978    -0.20000
C1485       C  0.12342224  0.67928797  0.05505917    -0.21500
C1486       C  0.09712396  0.67525202  0.05953654    -0.09500
C1487       C  0.08088007  0.69680920  0.06355418     0.29300
C1488       C  0.09098125  0.72173887  0.06439211    -0.21500
C1489       C  0.11725435  0.72567647  0.06021853    -0.09500
C1490       C  0.13341558  0.70427222  0.05505436     0.29300
F1491       F  0.15900049  0.70738823  0.05180548    -0.20100
H1492       H  0.13629186  0.66307048  0.05130251     0.17700
H1493       H  0.07828798  0.73803388  0.06866843     0.17700
F1494       F  0.05533235  0.69382034  0.06739791    -0.20000
C1495       C  0.44344675  0.83168799  0.44457296    -0.21500
C1496       C  0.42212660  0.84767492  0.43814168    -0.09500
C1497       C  0.42593915  0.87439064  0.43301897     0.29300
C1498       C  0.45050565  0.88468144  0.43398127    -0.21500
C1499       C  0.47168545  0.86878476  0.44095254    -0.09500
C1500       C  0.46798454  0.84217544  0.44652613     0.29300
F1501       F  0.48811100  0.82631237  0.45347139    -0.20100
H1502       H  0.44108872  0.81106701  0.44837742     0.17700
H1503       H  0.45290743  0.90532182  0.43035872     0.17700
F1504       F  0.40602135  0.89060911  0.42651342    -0.20000
C1505       C  0.36828760  0.89583418  0.34672161    -0.21500
C1506       C  0.35076715  0.87555839  0.34259770    -0.09500
C1507       C  0.34409079  0.86832719  0.30829913     0.29300
C1508       C  0.35631189  0.87951367  0.27921163    -0.21500
C1509       C  0.37589621  0.89767844  0.28362803    -0.09500
C1510       C  0.38092230  0.90660412  0.31766984     0.29300
F1511       F  0.40019582  0.92352083  0.32319848    -0.20100
H1512       H  0.37446077  0.90121327  0.37271449     0.17700
H1513       H  0.35248932  0.87180559  0.25345831     0.17700
F1514       F  0.32814721  0.84811463  0.30307370    -0.20000
C1515       C  0.35589303  0.74803381  0.31577623    -0.21500
C1516       C  0.33321366  0.74985448  0.33532816    -0.09500
C1517       C  0.31543302  0.72970396  0.33312683     0.29300
C1518       C  0.31938637  0.70937811  0.30967404    -0.21500
C1519       C  0.34119683  0.70861217  0.28832168    -0.09500
C1520       C  0.35997280  0.72752160  0.29272355     0.29300
F1521       F  0.38082005  0.72785967  0.27170071    -0.20100
H1522       H  0.37043026  0.76274232  0.31798277     0.17700
H1523       H  0.30419999  0.69556344  0.30564878     0.17700
F1524       F  0.29353012  0.73046052  0.35195585    -0.20000
C1525       C  0.36337806  0.77835475  0.04237991    -0.21500
C1526       C  0.34582255  0.79876554  0.03958120    -0.09500
C1527       C  0.32521592  0.79977794  0.06307465     0.29300
C1528       C  0.32110191  0.77950489  0.08679370    -0.21500
C1529       C  0.33713675  0.75763697  0.08684635    -0.09500
C1530       C  0.35898861  0.75779731  0.06534731     0.29300
F1531       F  0.37595574  0.73785285  0.06590044    -0.20100
H1532       H  0.37893617  0.77678811  0.02385877     0.17700
H1533       H  0.30471728  0.78035162  0.10396564     0.17700
F1534       F  0.37693692  0.77392894  0.51612510    -0.20000
C1535       C  0.25444334  0.84801836  0.98356011    -0.21500
C1536       C  0.26020725  0.82430300  0.46783634    -0.09500
C1537       C  0.24537275  0.80181383  0.47114381     0.29300
C1538       C  0.22679340  0.79964844  0.49745239    -0.21500
C1539       C  0.22871655  0.82652041  0.02896770    -0.09500
C1540       C  0.23554369  0.84895576  0.00989545     0.29300
F1541       F  0.22386021  0.87189774  0.01660001    -0.20100
H1542       H  0.25984836  0.86576616  0.97045802     0.17700
H1543       H  0.21620448  0.78175598  0.49893330     0.17700
F1544       F  0.24954954  0.78118426  0.45004534    -0.20000
C1545       C  0.41627361  0.70011200  0.43459785    -0.21500
C1546       C  0.40149863  0.67840846  0.44303378    -0.09500
C1547       C  0.37537271  0.68194355  0.45038665     0.29300
C1548       C  0.36437088  0.70663116  0.44909641    -0.21500
C1549       C  0.37897842  0.72814793  0.43958577    -0.09500
C1550       C  0.40510604  0.72470819  0.43241732     0.29300
F1551       F  0.41985691  0.74513926  0.42330818    -0.20100
H1552       H  0.43644455  0.69797905  0.42914653     0.17700
H1553       H  0.34415610  0.70878213  0.45424299     0.17700
F1554       F  0.36042215  0.66162216  0.45911139    -0.20000
C1555       C  0.56879164  0.87152928  0.17940073    -0.21500
C1556       C  0.57212563  0.84537984  0.18856315    -0.09500
C1557       C  0.55103482  0.83112893  0.20029808     0.29300
C1558       C  0.52716586  0.84307846  0.20332291    -0.21500
C1559       C  0.52381078  0.86918103  0.19389960    -0.09500
C1560       C  0.54483048  0.88331826  0.18172744     0.29300
F1561       F  0.54246301  0.90876815  0.17336661    -0.20100
H1562       H  0.58473243  0.88280876  0.16996999     0.17700
H1563       H  0.51124415  0.83191690  0.21306376     0.17700
F1564       F  0.55359112  0.80586200  0.20956350    -0.20000
C1565       C  0.67896343  0.79512566  0.31126544    -0.21500
C1566       C  0.65617590  0.79757940  0.29188520    -0.09500
C1567       C  0.63566750  0.78142494  0.30007652     0.29300
C1568       C  0.63916862  0.76083866  0.32342930    -0.21500
C1569       C  0.66287831  0.75662543  0.33990366    -0.09500
C1570       C  0.68226100  0.77491829  0.33537077     0.29300
F1571       F  0.70497475  0.77212076  0.35210491    -0.20100
H1572       H  0.69522323  0.80707275  0.30478307     0.17700
H1573       H  0.62342752  0.74779118  0.32809683     0.17700
F1574       F  0.61342894  0.78335908  0.28195599    -0.20000
C1575       C  0.63845055  0.73993002  0.06839627    -0.21500
C1576       C  0.66019819  0.74117189  0.08994876    -0.09500
C1577       C  0.67891946  0.72170227  0.08710610     0.29300
C1578       C  0.67714311  0.70325959  0.06040760    -0.21500
C1579       C  0.65617412  0.70328949  0.03733764    -0.09500
C1580       C  0.63629364  0.72103536  0.04264100     0.29300
F1581       F  0.61340228  0.73015815  0.51943141    -0.20100
H1582       H  0.62323974  0.75407405  0.07093073     0.17700
H1583       H  0.69307075  0.69022938  0.05597534     0.17700
F1584       F  0.69967161  0.72155218  0.10839001    -0.20000
C1585       C  0.64045431  0.87323644  0.02719452    -0.21500
C1586       C  0.62306355  0.89383890  0.03116546    -0.09500
C1587       C  0.61855520  0.90302078  0.06525546     0.29300
C1588       C  0.62925321  0.89028759  0.09454330    -0.21500
C1589       C  0.64428701  0.86786687  0.09052150    -0.09500
C1590       C  0.65057971  0.86006358  0.05640511     0.29300
F1591       F  0.66415673  0.83795520  0.05132086    -0.20100
H1592       H  0.64390694  0.86540306  0.00151172     0.17700
H1593       H  0.62345349  0.89625863  0.12047518     0.17700
F1594       F  0.60135433  0.92232927  0.07048367    -0.20000
C1595       C  0.62469324  0.70559798  0.21368353    -0.21500
C1596       C  0.61055451  0.72647698  0.20029609    -0.09500
C1597       C  0.58457177  0.72315332  0.19228456     0.29300
C1598       C  0.57336039  0.69880937  0.19591580    -0.21500
C1599       C  0.58812322  0.67751224  0.20672796    -0.09500
C1600       C  0.61369882  0.68125407  0.21655173     0.29300
F1601       F  0.62819389  0.66130422  0.22860520    -0.20100
H1602       H  0.64470171  0.70778158  0.22012082     0.17700
H1603       H  0.55348378  0.69637410  0.18894380     0.17700
F1604       F  0.57022076  0.74330050  0.18039409    -0.20000
C1605       C  0.94764400  0.81574391  0.31346093    -0.21500
C1606       C  0.92535784  0.83065717  0.30726429    -0.09500
C1607       C  0.92788605  0.85543378  0.29260559     0.29300
C1608       C  0.95180303  0.86531173  0.28569002    -0.21500
C1609       C  0.97422401  0.85137264  0.29378686    -0.09500
C1610       C  0.97202799  0.82605104  0.30681918     0.29300
F1611       F  0.99315691  0.81194367  0.31485045    -0.20100
H1612       H  0.94623625  0.79649019  0.32452469     0.17700
H1613       H  0.95266886  0.88478375  0.27518878     0.17700
F1614       F  0.90733053  0.87083739  0.28602412    -0.20000
C1615       C  0.83885988  0.86662130  0.43489330    -0.21500
C1616       C  0.85287825  0.86682567  0.40349739    -0.09500
C1617       C  0.87465791  0.88249281  0.40162311     0.29300
C1618       C  0.88358425  0.89548920  0.43127407    -0.21500
C1619       C  0.87132651  0.89295534  0.46377858    -0.09500
C1620       C  0.84791431  0.87971598  0.46480653     0.29300
F1621       F  0.83554827  0.87668219  0.49567402    -0.20100
H1622       H  0.82233007  0.85428472  0.43728963     0.17700
H1623       H  0.90196101  0.90492596  0.42984381     0.17700
F1624       F  0.88922856  0.88249154  0.37230053    -0.20000
C1625       C  0.82399363  0.78539136  0.18809753    -0.21500
C1626       C  0.84383215  0.78364321  0.21277564    -0.09500
C1627       C  0.86114658  0.76295449  0.21083147     0.29300
C1628       C  0.85725477  0.74310587  0.18685097    -0.21500
C1629       C  0.83644347  0.74384431  0.16357340    -0.09500
C1630       C  0.82058830  0.76594698  0.16315225     0.29300
F1631       F  0.80110014  0.76819604  0.13988575    -0.20100
H1632       H  0.80994988  0.80079374  0.18994784     0.17700
H1633       H  0.87053927  0.72697450  0.18672622     0.17700
F1634       F  0.88014852  0.76045077  0.23482019    -0.20000
C1635       C  0.85404196  0.73829909  0.43727195    -0.21500
C1636       C  0.83178637  0.73961343  0.41671997    -0.09500
C1637       C  0.81415721  0.71928956  0.41874229     0.29300
C1638       C  0.81785837  0.69925580  0.44303680    -0.21500
C1639       C  0.83947031  0.69881573  0.46494961    -0.09500
C1640       C  0.85800955  0.71798312  0.46083404     0.29300
F1641       F  0.88445758  0.72752448  0.98065919    -0.20100
H1642       H  0.86842858  0.75318331  0.43527807     0.17700
H1643       H  0.80275958  0.68531538  0.44695420     0.17700
F1644       F  0.79272757  0.71955360  0.39874549    -0.20000
C1645       C  0.74087426  0.79175685  0.23204421    -0.21500
C1646       C  0.73096433  0.81560883  0.22016505    -0.09500
C1647       C  0.73873120  0.83823159  0.23774925     0.29300
C1648       C  0.75608102  0.83694682  0.26579884    -0.21500
C1649       C  0.76557388  0.81309349  0.27808248    -0.09500
C1650       C  0.75775874  0.79043924  0.26069393     0.29300
F1651       F  0.76737957  0.76702456  0.27030024    -0.20100
H1652       H  0.73477616  0.77390403  0.21998783     0.17700
H1653       H  0.76240103  0.85475579  0.27776138     0.17700
F1654       F  0.72929102  0.86170740  0.22807783    -0.20000
C1655       C  0.86673266  0.69552979  0.30542784    -0.21500
C1656       C  0.88150314  0.71694170  0.31435818    -0.09500
C1657       C  0.90798550  0.71397986  0.31877883     0.29300
C1658       C  0.91950460  0.68980880  0.31352958    -0.21500
C1659       C  0.90460777  0.66820653  0.30508462    -0.09500
C1660       C  0.87802170  0.67129737  0.30142293     0.29300
F1661       F  0.86284720  0.65099604  0.29356282    -0.20100
H1662       H  0.84624155  0.69744431  0.30248019     0.17700
H1663       H  0.93998002  0.68788702  0.31653585     0.17700
F1664       F  0.92268419  0.73448779  0.32756252    -0.20000
O1665       O  0.82036020  0.75862033  0.86136920    -0.85500
O1666       O  0.79138962  0.79758843  0.82361425    -0.82600
C1667       C  0.78755477  0.81657238  0.80293796     0.97900
O1668       O  0.80597295  0.83118607  0.79470081    -0.82600
O1669       O  0.83616906  0.85019224  0.85113428    -0.85200
C1670       C  0.85151984  0.84877150  0.87679754     1.02500
O1671       O  0.86737583  0.83036441  0.87919224    -0.78000
O1672       O  0.84005354  0.78638000  0.89445596    -0.78200
C1673       C  0.82969332  0.76466041  0.89067582     1.02400
O1674       O  0.85083023  0.75232716  0.80115796    -0.85500
O1675       O  0.82030063  0.78696722  0.76553631    -0.82600
C1676       C  0.83676229  0.79810935  0.74729378     0.98000
O1677       O  0.85155208  0.81474504  0.76033395    -0.82600
O1678       O  0.88133852  0.83796139  0.81110815    -0.85200
C1679       C  0.89980879  0.82217425  0.81459693     1.02400
O1680       O  0.89624390  0.80076327  0.82934807    -0.78000
O1681       O  0.87202512  0.75739577  0.85000238    -0.78200
C1682       C  0.86760458  0.74471650  0.82269706     1.02400
Cr1683     Cr  0.82229388  0.77602956  0.81454440     1.93700
Cr1684     Cr  0.84361107  0.83133860  0.80627897     1.93200
Cr1685     Cr  0.86697904  0.79444954  0.86067918     1.39100
O1686       O  0.84398835  0.80071580  0.82749141    -1.23300
O1687       O  0.67237961  0.76649294  0.64111602    -0.85500
O1688       O  0.70151478  0.80578623  0.67711730    -0.82600
C1689       C  0.70581334  0.82351581  0.69921861     0.97900
O1690       O  0.68781082  0.83889091  0.70725744    -0.82600
O1691       O  0.65904742  0.85908795  0.64843717    -0.85200
C1692       C  0.64368781  0.85791495  0.62261764     1.02500
O1693       O  0.62806495  0.83940794  0.61979955    -0.78000
O1694       O  0.65129708  0.79266135  0.60640918    -0.78200
C1695       C  0.66257531  0.77142059  0.61158606     1.02400
O1696       O  0.64247107  0.76208456  0.70146383    -0.85500
O1697       O  0.67212951  0.79635326  0.73612227    -0.82600
C1698       C  0.65486710  0.80720836  0.75345343     0.98000
O1699       O  0.64073923  0.82450477  0.73965895    -0.82600
O1700       O  0.61374517  0.85064963  0.68600551    -0.85200
C1701       C  0.59451636  0.83647196  0.68161437     1.02400
O1702       O  0.59740413  0.81351906  0.67195061    -0.78000
O1703       O  0.61881809  0.76757184  0.65464031    -0.78200
C1704       C  0.62471218  0.75479626  0.68165137     1.02400
Cr1705     Cr  0.67065484  0.78493082  0.68714219     1.93700
Cr1706     Cr  0.65049768  0.84091562  0.69362946     1.93200
Cr1707     Cr  0.62588451  0.80397261  0.64079514     1.39100
O1708       O  0.64938219  0.81001007  0.67317336    -1.23300
O1709       O  0.34469918  0.79215055  0.85811661    -0.85500
O1710       O  0.36696065  0.83896970  0.86995763    -0.82600
C1711       C  0.35028692  0.85676664  0.87128405     0.97900
O1712       O  0.33514326  0.85850673  0.89727200    -0.82600
O1713       O  0.30726129  0.83959995  0.95772142    -0.85200
C1714       C  0.28935021  0.82410178  0.95061117     1.02500
O1715       O  0.29367145  0.80551921  0.92971932    -0.78000
O1716       O  0.32337453  0.76638509  0.89272073    -0.78200
C1717       C  0.33352155  0.77102779  0.86337414     1.02400
O1718       O  0.37803123  0.76794618  0.90646898    -0.85500
O1719       O  0.39817506  0.81449349  0.92314082    -0.82600
C1720       C  0.40048686  0.83778056  0.93148660     0.98000
O1721       O  0.38085363  0.85171344  0.93519049    -0.82600
O1722       O  0.34891336  0.82446668  0.48937547    -0.85200
C1723       C  0.33519425  0.80679313  0.50260931     1.02400
O1724       O  0.32460029  0.79695194  0.98754804    -0.78000
O1725       O  0.35385430  0.76169323  0.95249406    -0.78200
C1726       C  0.37166355  0.75459393  0.93257464     1.02400
Cr1727     Cr  0.36994802  0.80405018  0.89215030     1.93700
Cr1728     Cr  0.34439653  0.84156684  0.94337702     1.93200
Cr1729     Cr  0.32539126  0.78502136  0.93875080     1.39100
O1730       O  0.34620572  0.81018655  0.92418915    -1.23300
O1731       O  0.13831644  0.77708794  0.64204140    -0.85500
O1732       O  0.14009715  0.82949347  0.64155714    -0.82600
C1733       C  0.14288826  0.85247099  0.63107159     0.97900
O1734       O  0.14449184  0.85761122  0.59831401    -0.82600
O1735       O  0.18636121  0.83498660  0.55840082    -0.85200
C1736       C  0.19979413  0.81632711  0.54686876     1.02500
O1737       O  0.19302659  0.79335056  0.55307702    -0.78000
O1738       O  0.17654014  0.77278509  0.62039329    -0.78200
C1739       C  0.16003479  0.76684337  0.64328066     1.02400
O1740       O  0.10062381  0.77628661  0.58970512    -0.85500
O1741       O  0.09754849  0.83096911  0.59764174    -0.82600
C1742       C  0.09358991  0.83982548  0.56761637     0.98000
O1743       O  0.11045041  0.83739100  0.54438858    -0.82600
O1744       O  0.15154128  0.81563551  0.50909046    -0.85200
C1745       C  0.15557257  0.80622563  0.99643414     1.02400
O1746       O  0.14772140  0.77489637  0.52558700    -0.78000
O1747       O  0.13472696  0.75180722  0.58493548    -0.78200
C1748       C  0.11083505  0.75410314  0.58578953     1.02400
Cr1749     Cr  0.12114037  0.80373718  0.61455934     1.93700
Cr1750     Cr  0.14794211  0.83404906  0.55524284     1.93200
Cr1751     Cr  0.16194613  0.77626878  0.57213052     1.39100
O1752       O  0.14423557  0.80503475  0.58077429    -1.23300
O1753       O  0.32157948  0.73856489  0.64105026    -0.85500
O1754       O  0.29460814  0.69841580  0.67810947    -0.82600
C1755       C  0.29137461  0.67997722  0.69963566     0.97900
O1756       O  0.31004358  0.66545973  0.70777918    -0.82600
O1757       O  0.33952482  0.64568771  0.65036090    -0.85200
C1758       C  0.35396445  0.64744765  0.62371246     1.02500
O1759       O  0.36811010  0.66693183  0.61930110    -0.78000
O1760       O  0.34167026  0.71213769  0.60625454    -0.78200
C1761       C  0.33034461  0.73331840  0.61119299     1.02400
O1762       O  0.35245122  0.74430152  0.70005022    -0.85500
O1763       O  0.32401040  0.70923468  0.73660017    -0.82600
C1764       C  0.34176423  0.69913122  0.75398598     0.98000
O1765       O  0.35637273  0.68239019  0.74032128    -0.82600
O1766       O  0.38425029  0.65779674  0.68822888    -0.85200
C1767       C  0.40255264  0.67266398  0.68156736     1.02400
O1768       O  0.39884653  0.69455136  0.66825692    -0.78000
O1769       O  0.37469156  0.73938776  0.65188060    -0.78200
C1770       C  0.36898698  0.75226118  0.67873626     1.02400
Cr1771     Cr  0.32476963  0.72034522  0.68722564     1.93700
Cr1772     Cr  0.34724696  0.66520837  0.69475565     1.93200
Cr1773     Cr  0.36887615  0.70254688  0.63920164     1.39100
O1774       O  0.34674834  0.69590207  0.67323688    -1.23300
O1775       O  0.17806722  0.73644656  0.86267308    -0.85500
O1776       O  0.20823215  0.69739725  0.82733380    -0.82600
C1777       C  0.21285469  0.67885474  0.80654869     0.97900
O1778       O  0.19520756  0.66325902  0.79903907    -0.82600
O1779       O  0.16679207  0.64460645  0.85720999    -0.85200
C1780       C  0.15136015  0.64598445  0.88267578     1.02500
O1781       O  0.13442156  0.66354521  0.88378608    -0.78000
O1782       O  0.15720679  0.71002261  0.89676333    -0.78200
C1783       C  0.16808448  0.73136573  0.89194005     1.02400
O1784       O  0.14837856  0.74126354  0.80192196    -0.85500
O1785       O  0.17921637  0.70608637  0.76794811    -0.82600
C1786       C  0.16370469  0.69323244  0.75012779     0.98000
O1787       O  0.14945357  0.67630830  0.76415518    -0.82600
O1788       O  0.12124289  0.65147976  0.81783278    -0.85200
C1789       C  0.10158781  0.66551464  0.82112367     1.02400
O1790       O  0.10378931  0.68869075  0.83036870    -0.78000
O1791       O  0.12479505  0.73541969  0.84846591    -0.78200
C1792       C  0.13115054  0.74904007  0.82250129     1.02400
Cr1793     Cr  0.17691464  0.71796614  0.81666099     1.93700
Cr1794     Cr  0.15809595  0.66137462  0.81127398     1.93200
Cr1795     Cr  0.13199187  0.69878271  0.86212517     1.39100
O1796       O  0.15589215  0.69276048  0.83032367    -1.23300
O1797       O  0.96180945  0.38963733  0.51458462    -0.85500
O1798       O  0.91543322  0.36863346  0.49930872    -0.82600
C1799       C  0.89913161  0.38678392  0.50125375     0.97900
O1800       O  0.89747609  0.40545425  0.97757159    -0.82600
O1801       O  0.91565610  0.43606894  0.91955562    -0.85200
C1802       C  0.93124139  0.45370821  0.92748304     1.02500
O1803       O  0.94946416  0.44855181  0.94828760    -0.78000
O1804       O  0.98750745  0.41756018  0.98266088    -0.78200
C1805       C  0.98158288  0.40306133  0.51100016     1.02400
O1806       O  0.98736967  0.36441268  0.96750744    -0.85500
O1807       O  0.94226702  0.34300484  0.94808868    -0.82600
C1808       C  0.91979139  0.34105685  0.93715593     0.98000
O1809       O  0.90554452  0.36082238  0.93582530    -0.82600
O1810       O  0.92894501  0.38982450  0.88340369    -0.85200
C1811       C  0.94621801  0.40381430  0.87000582     1.02400
O1812       O  0.95776651  0.42030461  0.88789366    -0.78000
O1813       O  0.99194403  0.38845415  0.92074715    -0.78200
C1814       C  0.99956370  0.37023214  0.94022845     1.02400
Cr1815     Cr  0.95112514  0.37092939  0.98091375     1.93700
Cr1816     Cr  0.91408671  0.39809609  0.93076613     1.93200
Cr1817     Cr  0.96959115  0.41717275  0.93651556     1.39100
O1818       O  0.94492026  0.39568783  0.94975869    -1.23300
O1819       O  0.96122815  0.58967809  0.73196001    -0.85500
O1820       O  0.91680878  0.61508889  0.74636713    -0.82600
C1821       C  0.89852719  0.59946940  0.75017677     0.97900
O1822       O  0.89787634  0.58408639  0.77628905    -0.82600
O1823       O  0.91910048  0.55445778  0.83289273    -0.85200
C1824       C  0.93357313  0.53600373  0.82381686     1.02500
O1825       O  0.95163109  0.54016110  0.80241407    -0.78000
O1826       O  0.98936419  0.56995765  0.76458304    -0.78200
C1827       C  0.98270121  0.57915764  0.73532118     1.02400
O1828       O  0.98897885  0.62354202  0.77716338    -0.85500
O1829       O  0.94369729  0.64630290  0.79546424    -0.82600
C1830       C  0.92161968  0.64881630  0.80764195     0.98000
O1831       O  0.90816006  0.62937979  0.81450256    -0.82600
O1832       O  0.93463327  0.60132384  0.86608495    -0.85200
C1833       C  0.95192415  0.58678715  0.87883626     1.02400
O1834       O  0.96219273  0.56950755  0.86072208    -0.78000
O1835       O  0.99542178  0.60037789  0.82453037    -0.78200
C1836       C  0.00241495  0.61798334  0.80370313     1.02400
Cr1837     Cr  0.95226101  0.61665710  0.76544641     1.93700
Cr1838     Cr  0.91725926  0.59218483  0.82066428     1.93200
Cr1839     Cr  0.97235116  0.57160015  0.81142730     1.39100
O1840       O  0.94719318  0.59330561  0.79882398    -1.23300
O1841       O  0.53879618  0.59357878  0.77203913    -0.85500
O1842       O  0.58402280  0.61862597  0.75988157    -0.82600
C1843       C  0.60212574  0.60261309  0.75599622     0.97900
O1844       O  0.60321711  0.58825941  0.72909477    -0.82600
O1845       O  0.58300627  0.56131957  0.66996336    -0.85200
C1846       C  0.56771423  0.54306609  0.67652515     1.02500
O1847       O  0.54932463  0.54673394  0.69756182    -0.78000
O1848       O  0.51155282  0.57575408  0.73634956    -0.78200
C1849       C  0.51746715  0.58325175  0.76670403     1.02400
O1850       O  0.51267811  0.62898058  0.72825621    -0.85500
O1851       O  0.55757151  0.65167480  0.71085416    -0.82600
C1852       C  0.57986734  0.65471060  0.69980545     0.98000
O1853       O  0.59398356  0.63542995  0.69364768    -0.82600
O1854       O  0.56924771  0.60941102  0.63848679    -0.85200
C1855       C  0.55249064  0.59549152  0.62381888     1.02400
O1856       O  0.54027839  0.57896386  0.64094858    -0.78000
O1857       O  0.50776248  0.60936658  0.67807033    -0.78200
C1858       C  0.50035301  0.62557699  0.70038727     1.02400
Cr1859     Cr  0.54891566  0.62135923  0.73992936     1.93700
Cr1860     Cr  0.58499523  0.59849538  0.68460353     1.93200
Cr1861     Cr  0.52944895  0.57912189  0.69010163     1.39100
O1862       O  0.55459410  0.59927137  0.70533890    -1.23300
O1863       O  0.53942231  0.40752402  0.97832402    -0.85500
O1864       O  0.58554948  0.38366223  0.99129629    -0.82600
C1865       C  0.60308503  0.40026283  0.99397564     0.97900
O1866       O  0.60196503  0.41517247  0.52279332    -0.82600
O1867       O  0.58225703  0.44585986  0.57873033    -0.85200
C1868       C  0.56814193  0.46441538  0.56890179     1.02500
O1869       O  0.55070051  0.46030763  0.54656460    -0.78000
O1870       O  0.51280786  0.43057634  0.50918265    -0.78200
C1871       C  0.51775017  0.41735767  0.98347715     1.02400
O1872       O  0.51162432  0.37590598  0.52730782    -0.85500
O1873       O  0.55537355  0.35397552  0.54993785    -0.82600
C1874       C  0.57711081  0.35126473  0.56315445     0.98000
O1875       O  0.59189492  0.37039989  0.56421656    -0.82600
O1876       O  0.56574168  0.40017962  0.61347594    -0.85200
C1877       C  0.54834871  0.41495490  0.62522639     1.02400
O1878       O  0.53852395  0.43231220  0.60640757    -0.78000
O1879       O  0.50458464  0.40270705  0.57071729    -0.78200
C1880       C  0.49793437  0.38389794  0.55205182     1.02400
Cr1881     Cr  0.54798021  0.38169001  0.51553657     1.93700
Cr1882     Cr  0.58329919  0.40801876  0.56789085     1.93200
Cr1883     Cr  0.52893394  0.42981027  0.55667888     1.39100
O1884       O  0.55336484  0.40684815  0.54611713    -1.23300
O1885       O  0.80551440  0.21530867  0.88639903    -0.85500
O1886       O  0.79628365  0.19544623  0.95517548    -0.82600
C1887       C  0.79192940  0.17148056  0.95923453     0.97900
O1888       O  0.80781108  0.15478764  0.94789166    -0.82600
O1889       O  0.85246685  0.13720768  0.91012302    -0.85200
C1890       C  0.84973752  0.14077674  0.87706711     1.02500
O1891       O  0.84767980  0.16330178  0.86480394    -0.78000
O1892       O  0.84237166  0.21528545  0.85902902    -0.78200
C1893       C  0.81890137  0.22092671  0.85996662     1.02400
O1894       O  0.84741779  0.24318228  0.91302125    -0.85500
O1895       O  0.84271401  0.22075932  0.97485910    -0.82600
C1896       C  0.83501760  0.20954635  0.49064929     0.98000
O1897       O  0.83371418  0.18530513  0.48626741    -0.82600
O1898       O  0.88259511  0.16813695  0.96072742    -0.85200
C1899       C  0.89954178  0.16836194  0.93732393     1.02400
O1900       O  0.89269993  0.16957238  0.90578508    -0.78000
O1901       O  0.88327531  0.22198174  0.90784898    -0.78200
C1902       C  0.87146903  0.24302082  0.91239181     1.02400
Cr1903     Cr  0.82401821  0.21638823  0.93174986     1.93700
Cr1904     Cr  0.84537302  0.16227259  0.95109382     1.93200
Cr1905     Cr  0.86489461  0.19219828  0.88695861     1.39100
O1906       O  0.84384079  0.18970065  0.92263279    -1.23300
O1907       O  0.68660509  0.22857211  0.62115011    -0.85500
O1908       O  0.69871497  0.20422058  0.55431464    -0.82600
C1909       C  0.70336109  0.18019998  0.55112489     0.97900
O1910       O  0.68821265  0.16363853  0.56373351    -0.82600
O1911       O  0.64591827  0.14578775  0.60425525    -0.85200
C1912       C  0.64763040  0.15064301  0.63697097     1.02500
O1913       O  0.64868704  0.17370627  0.64744451    -0.78000
O1914       O  0.64979516  0.22668191  0.64761408    -0.78200
C1915       C  0.67156592  0.23649048  0.64482764     1.02400
O1916       O  0.64419337  0.25173730  0.58859595    -0.85500
O1917       O  0.65307126  0.22743134  0.52956810    -0.82600
C1918       C  0.66037238  0.20815408  0.00294977     0.98000
O1919       O  0.65523359  0.18665051  0.51413335    -0.82600
O1920       O  0.61326800  0.17119839  0.55229728    -0.85200
C1921       C  0.59735012  0.16921567  0.57669850     1.02400
O1922       O  0.60361711  0.17567737  0.60710517    -0.78000
O1923       O  0.60946689  0.22951200  0.59919894    -0.78200
C1924       C  0.62030095  0.25083001  0.59228488     1.02400
Cr1925     Cr  0.66961199  0.22522171  0.57459223     1.93700
Cr1926     Cr  0.65066085  0.16908687  0.56105353     1.93200
Cr1927     Cr  0.62970444  0.20096123  0.62238086     1.39100
O1928       O  0.65065037  0.19815850  0.58628539    -1.23300
O1929       O  0.01703984  0.10855283  0.51616612    -0.85500
O1930       O  0.06886957  0.10614610  0.52013476    -0.82600
C1931       C  0.09169657  0.10166548  0.51134927     0.97900
O1932       O  0.10177824  0.09781103  0.97848543    -0.82600
O1933       O  0.07680345  0.05654037  0.93790014    -0.85200
C1934       C  0.05759907  0.04521531  0.92448948     1.02500
O1935       O  0.03582811  0.05574331  0.92702327    -0.78000
O1936       O  0.01471475  0.07276522  0.99261832    -0.78200
C1937       C  0.00673390  0.08681315  0.51739525     1.02400
O1938       O  0.02559165  0.14976394  0.96667671    -0.85500
O1939       O  0.07910578  0.14696422  0.97600850    -0.82600
C1940       C  0.08858702  0.15025802  0.94625371     0.98000
O1941       O  0.08587873  0.13310705  0.92314409    -0.82600
O1942       O  0.06244856  0.09262745  0.88677144    -0.85200
C1943       C  0.03995420  0.09886834  0.87780938     1.02400
O1944       O  0.02349548  0.10496460  0.90008679    -0.78000
O1945       O  0.99866914  0.11812747  0.95838797    -0.78200
C1946       C  0.00306461  0.14191980  0.96086159     1.02400
Cr1947     Cr  0.05015132  0.12567017  0.99177111     1.93700
Cr1948     Cr  0.07943099  0.09563439  0.93411760     1.93200
Cr1949     Cr  0.02101374  0.08859166  0.94568978     1.39100
O1950       O  0.05047568  0.10270902  0.95751011    -1.23300
O1951       O  0.02009049  0.89401139  0.73094364    -0.85500
O1952       O  0.07179660  0.89879222  0.73082763    -0.82600
C1953       C  0.09450920  0.90138552  0.74112531     0.97900
O1954       O  0.09964307  0.90234049  0.77385065    -0.82600
O1955       O  0.07635453  0.94368129  0.81552307    -0.85200
C1956       C  0.05725963  0.95689830  0.82595013     1.02500
O1957       O  0.03494791  0.94843806  0.82081046    -0.78000
O1958       O  0.01304787  0.93151493  0.75491740    -0.78200
C1959       C  0.00782716  0.91485043  0.73172932     1.02400
O1960       O  0.02146442  0.85441983  0.78099011    -0.85500
O1961       O  0.07546240  0.85444719  0.77280132    -0.82600
C1962       C  0.08383445  0.84986044  0.80286125     0.98000
O1963       O  0.08081476  0.86639762  0.82668133    -0.82600
O1964       O  0.05917831  0.90711966  0.86378530    -0.85200
C1965       C  0.03610987  0.90333563  0.87168065     1.02400
O1966       O  0.01903310  0.90115451  0.84898214    -0.78000
O1967       O  0.99595342  0.88750968  0.79010566    -0.78200
C1968       C  0.99923519  0.86351892  0.78667343     1.02400
Cr1969     Cr  0.04745871  0.87747552  0.75715872     1.93700
Cr1970     Cr  0.07660059  0.90451401  0.81719949     1.93200
Cr1971     Cr  0.01878938  0.91623901  0.80256493     1.39100
O1972       O  0.04784677  0.90003640  0.79212440    -1.23300
O1973       O  0.18710007  0.26647241  0.89222485    -0.85500
O1974       O  0.20923315  0.30903086  0.93040447    -0.82600
C1975       C  0.20974579  0.32832562  0.95088165     0.97900
O1976       O  0.18950220  0.34072938  0.95725501    -0.82600
O1977       O  0.16249220  0.35667091  0.89619914    -0.85200
C1978       C  0.14932411  0.35328506  0.86865022     1.02500
O1979       O  0.13547825  0.33354930  0.86538903    -0.78000
O1980       O  0.16738666  0.29262377  0.85622922    -0.78200
C1981       C  0.18071526  0.27270209  0.86149023     1.02400
O1982       O  0.15383879  0.25825695  0.94892796    -0.85500
O1983       O  0.17832256  0.29612279  0.98666864    -0.82600
C1984       C  0.16179569  0.30383257  0.50253519     0.98000
O1985       O  0.14715787  0.31987578  0.48713803    -0.82600
O1986       O  0.11667386  0.34230087  0.92976453    -0.85200
C1987       C  0.09954996  0.32606817  0.92291830     1.02400
O1988       O  0.10540587  0.30361733  0.91292562    -0.78000
O1989       O  0.13498412  0.26064423  0.89780368    -0.78200
C1990       C  0.13933458  0.24862815  0.92600750     1.02400
Cr1991     Cr  0.18045574  0.28444945  0.93776955     1.93700
Cr1992     Cr  0.15361494  0.33784913  0.94084531     1.93200
Cr1993     Cr  0.13741906  0.29827037  0.88597382     1.39100
O1994       O  0.15728353  0.30690406  0.92141061    -1.23300
O1995       O  0.32363218  0.26968089  0.61574454    -0.85500
O1996       O  0.29304667  0.30820330  0.58094150    -0.82600
C1997       C  0.28802441  0.32634874  0.55947678     0.97900
O1998       O  0.30558619  0.34149363  0.54998202    -0.82600
O1999       O  0.33620358  0.36193404  0.60503852    -0.85200
C2000       C  0.35213615  0.36080198  0.63019755     1.02500
O2001       O  0.36816852  0.34246896  0.63235246    -0.78000
O2002       O  0.34450950  0.29657919  0.64902585    -0.78200
C2003       C  0.33283866  0.27555772  0.64517586     1.02400
O2004       O  0.35219724  0.26462709  0.55353758    -0.85500
O2005       O  0.31972608  0.29815055  0.52018824    -0.82600
C2006       C  0.34657167  0.30347193  0.00152420     0.98000
O2007       O  0.35061602  0.32602153  0.51322237    -0.82600
O2008       O  0.37979930  0.35205401  0.56395243    -0.85200
C2009       C  0.39924009  0.33795632  0.56835883     1.02400
O2010       O  0.39689917  0.31534314  0.57996513    -0.78000
O2011       O  0.37537959  0.26990802  0.60077962    -0.78200
C2012       C  0.36971629  0.25717340  0.57389759     1.02400
Cr2013     Cr  0.32372026  0.28731316  0.56915990     1.93700
Cr2014     Cr  0.34302990  0.34307968  0.55981318     1.93200
Cr2015     Cr  0.36920209  0.30673521  0.61287937     1.39100
O2016       O  0.34498350  0.31251713  0.58122487    -1.23300
O2017       O  0.01435284  0.56961033  0.50950472    -0.85500
O2018       O  0.05371493  0.54205748  0.54782475    -0.82600
C2019       C  0.07168686  0.53864520  0.56974206     0.97900
O2020       O  0.08562246  0.55771778  0.57800169    -0.82600
O2021       O  0.10373666  0.58879406  0.52018817    -0.85200
C2022       C  0.10178137  0.60402958  0.49405526     1.02500
O2023       O  0.09058285  0.61591264  0.99555145    -0.78000
O2024       O  0.04551832  0.59204497  0.98073392    -0.78200
C2025       C  0.02550877  0.57915218  0.98496188     1.02400
O2026       O  0.00669979  0.59994479  0.56971332    -0.85500
O2027       O  0.04157501  0.57132853  0.60612515    -0.82600
C2028       C  0.05131367  0.58912242  0.62376383     0.98000
O2029       O  0.06764113  0.60419817  0.61056902    -0.82600
O2030       O  0.09020836  0.63438215  0.55932276    -0.85200
C2031       C  0.07391889  0.65245413  0.55566077     1.02400
O2032       O  0.05281088  0.64790698  0.54169452    -0.78000
O2033       O  0.01064926  0.62254372  0.52149900    -0.78200
C2034       C  0.99841939  0.61696188  0.54882205     1.02400
Cr2035     Cr  0.03113978  0.57234098  0.55662895     1.93700
Cr2036     Cr  0.08471794  0.59597850  0.56503328     1.93200
Cr2037     Cr  0.04755909  0.61838809  0.51036738     1.39100
O2038       O  0.05460133  0.59522387  0.54355983    -1.23300
O2039       O  0.01197378  0.42797598  0.73485475    -0.85500
O2040       O  0.05262744  0.45289718  0.69614133    -0.82600
C2041       C  0.07066026  0.45515165  0.67414944     0.97900
O2042       O  0.08420984  0.43536572  0.66682632    -0.82600
O2043       O  0.10310893  0.40590526  0.72517311    -0.85200
C2044       C  0.10105183  0.39301511  0.75334412     1.02500
O2045       O  0.08163999  0.37921976  0.75911791    -0.78000
O2046       O  0.03915829  0.40940042  0.76982330    -0.78200
C2047       C  0.01766594  0.41965571  0.76493979     1.02400
O2048       O  0.00543087  0.39477338  0.67770348    -0.85500
O2049       O  0.04051097  0.42209897  0.63969458    -0.82600
C2050       C  0.04993303  0.40352096  0.62312978     0.98000
O2051       O  0.06535017  0.38798038  0.63759402    -0.82600
O2052       O  0.08762280  0.35911280  0.68992773    -0.85200
C2053       C  0.07130267  0.34189703  0.69719079     1.02400
O2054       O  0.05137030  0.34758889  0.71350733    -0.78000
O2055       O  0.00922823  0.37510428  0.72843687    -0.78200
C2056       C  0.99704712  0.37918502  0.70040238     1.02400
Cr2057     Cr  0.02975290  0.42285715  0.68887228     1.93700
Cr2058     Cr  0.08294027  0.39749485  0.68197743     1.93200
Cr2059     Cr  0.04614217  0.37956116  0.74002837     1.39100
O2060       O  0.05312062  0.40010590  0.70394736    -1.23300
O2061       O  0.97357530  0.92888081  0.51370970    -0.85500
O2062       O  0.93425031  0.95562620  0.55086448    -0.82600
C2063       C  0.91620893  0.95909638  0.57233939     0.97900
O2064       O  0.90131300  0.94068655  0.57899545    -0.82600
O2065       O  0.88532766  0.90997913  0.52027738    -0.85200
C2066       C  0.88798022  0.89397662  0.49529751     1.02500
O2067       O  0.90685552  0.87480321  0.99952207    -0.78000
O2068       O  0.95022722  0.90057179  0.98314191    -0.78200
C2069       C  0.97048363  0.91323533  0.98574971     1.02400
O2070       O  0.98299689  0.89896017  0.57369720    -0.85500
O2071       O  0.94659330  0.92668602  0.60979055    -0.82600
C2072       C  0.93381221  0.91136638  0.62823520     0.98000
O2073       O  0.91739970  0.89625309  0.61483103    -0.82600
O2074       O  0.89582516  0.86513005  0.56178022    -0.85200
C2075       C  0.91053909  0.84591916  0.55767746     1.02400
O2076       O  0.93334785  0.84947821  0.54851971    -0.78000
O2077       O  0.97759280  0.87462564  0.52771543    -0.78200
C2078       C  0.99145168  0.88229744  0.55249035     1.02400
Cr2079     Cr  0.95707852  0.92577310  0.56058709     1.93700
Cr2080     Cr  0.90237401  0.90305779  0.56713630     1.93200
Cr2081     Cr  0.94059679  0.87874766  0.51637105     1.39100
O2082       O  0.93350356  0.90256199  0.54823098    -1.23300
O2083       O  0.97888208  0.06293805  0.74192870    -0.85500
O2084       O  0.93886293  0.03730146  0.70446483    -0.82600
C2085       C  0.92027847  0.03457436  0.68358418     0.97900
O2086       O  0.90617180  0.05377667  0.67629978    -0.82600
O2087       O  0.89050918  0.08438265  0.73355533    -0.85200
C2088       C  0.89306045  0.09938113  0.75935771     1.02500
O2089       O  0.91088596  0.11565008  0.75983594    -0.78000
O2090       O  0.95108352  0.08367740  0.77337775    -0.78200
C2091       C  0.97227007  0.07248822  0.77087229     1.02400
O2092       O  0.98757360  0.09353507  0.68195505    -0.85500
O2093       O  0.95109425  0.06614837  0.64526355    -0.82600
C2094       C  0.93860274  0.08229613  0.62727916     0.98000
O2095       O  0.92316095  0.09809594  0.64118332    -0.82600
O2096       O  0.90386773  0.13008339  0.69249755    -0.85200
C2097       C  0.92063239  0.14758886  0.69527457     1.02400
O2098       O  0.94160903  0.14283505  0.71004883    -0.78000
O2099       O  0.98350972  0.11521100  0.73062553    -0.78200
C2100       C  0.99645412  0.10927149  0.70404179     1.02400
Cr2101     Cr  0.96200900  0.06664802  0.69477417     1.93700
Cr2102     Cr  0.90809139  0.09146775  0.68791159     1.93200
Cr2103     Cr  0.94617013  0.11260280  0.74099120     1.39100
O2104       O  0.93887462  0.09031672  0.70747778    -1.23300
O2105       O  0.84476699  0.70561413  0.64564127    -0.85500
O2106       O  0.86826771  0.65946793  0.63256429    -0.82600
C2107       C  0.85176139  0.64166606  0.63325732     0.97900
O2108       O  0.83560765  0.63941963  0.60843839    -0.82600
O2109       O  0.80504351  0.65712880  0.54957093    -0.85200
C2110       C  0.78729074  0.67272954  0.55747019     1.02500
O2111       O  0.79199669  0.69087756  0.57861965    -0.78000
O2112       O  0.82098813  0.73031972  0.61185169    -0.78200
C2113       C  0.83164900  0.72576717  0.64083406     1.02400
O2114       O  0.87497837  0.73070578  0.59476631    -0.85500
O2115       O  0.89594489  0.68469508  0.57640259    -0.82600
C2116       C  0.89868012  0.66140222  0.56829135     0.98000
O2117       O  0.87955553  0.64677355  0.56704398    -0.82600
O2118       O  0.85055322  0.67113096  0.51388842    -0.85200
C2119       C  0.84627349  0.69094175  0.99451230     1.02400
O2120       O  0.81952745  0.69982524  0.51775373    -0.78000
O2121       O  0.84904937  0.73614865  0.55018957    -0.78200
C2122       C  0.86745243  0.74370467  0.56876313     1.02400
Cr2123     Cr  0.86894008  0.69440634  0.60979155     1.93700
Cr2124     Cr  0.84255857  0.65594910  0.56131866     1.93200
Cr2125     Cr  0.82203003  0.71207969  0.56622336     1.39100
O2126       O  0.84418911  0.68754036  0.57964510    -1.23300
O2127       O  0.65350301  0.71250800  0.85499074    -0.85500
O2128       O  0.63232474  0.66481143  0.86712983    -0.82600
C2129       C  0.64867184  0.64669384  0.86883915     0.97900
O2130       O  0.66433103  0.64521345  0.89427972    -0.82600
O2131       O  0.69323225  0.66439570  0.95237194    -0.85200
C2132       C  0.71089769  0.67990646  0.94432393     1.02500
O2133       O  0.70589398  0.69926583  0.92478868    -0.78000
O2134       O  0.67451318  0.73819683  0.88991716    -0.78200
C2135       C  0.66439449  0.73373356  0.86052710     1.02400
O2136       O  0.62050271  0.73533160  0.90464505    -0.85500
O2137       O  0.60151028  0.68831481  0.92101094    -0.82600
C2138       C  0.59961146  0.66517518  0.93053890     0.98000
O2139       O  0.61944666  0.65148634  0.93399062    -0.82600
O2140       O  0.64161881  0.68034780  0.49093316    -0.85200
C2141       C  0.65543276  0.69748523  0.50511199     1.02400
O2142       O  0.67651003  0.70629713  0.98435592    -0.78000
O2143       O  0.64493971  0.74102758  0.95064699    -0.78200
C2144       C  0.62662834  0.74812238  0.93129128     1.02400
Cr2145     Cr  0.62909235  0.69954748  0.88957303     1.93700
Cr2146     Cr  0.65593581  0.66201583  0.94033402     1.93200
Cr2147     Cr  0.67392055  0.71883357  0.93556779     1.39100
O2148       O  0.65337359  0.69345139  0.92115353    -1.23300
O2149       O  0.45651968  0.90730627  0.77011242    -0.85500
O2150       O  0.41058144  0.88458415  0.75526967    -0.82600
C2151       C  0.39292194  0.90142345  0.75435063     0.97900
O2152       O  0.39191393  0.91812458  0.72979828    -0.82600
O2153       O  0.41097933  0.94807762  0.67200087    -0.85200
C2154       C  0.42653422  0.96572861  0.67990364     1.02500
O2155       O  0.44472726  0.96071319  0.70089068    -0.78000
O2156       O  0.48259842  0.92922369  0.73684451    -0.78200
C2157       C  0.47734274  0.91891956  0.76605366     1.02400
O2158       O  0.48153082  0.87536611  0.72081413    -0.85500
O2159       O  0.43587090  0.85539806  0.70098539    -0.82600
C2160       C  0.41304085  0.85325422  0.69165023     0.98000
O2161       O  0.39902287  0.87308949  0.68928585    -0.82600
O2162       O  0.42384953  0.90157646  0.63676307    -0.85200
C2163       C  0.44104498  0.91560125  0.62326230     1.02400
O2164       O  0.45320899  0.93161607  0.64130378    -0.78000
O2165       O  0.48707006  0.90021517  0.67499238    -0.78200
C2166       C  0.49447260  0.88201896  0.69457237     1.02400
Cr2167     Cr  0.44549375  0.88273762  0.73424566     1.93700
Cr2168     Cr  0.40882663  0.91026049  0.68369749     1.93200
Cr2169     Cr  0.46465860  0.92891455  0.69022994     1.39100
O2170       O  0.43964543  0.90770689  0.70328881    -1.23300
O2171       O  0.45529912  0.10025200  0.98411069    -0.85500
O2172       O  0.40838974  0.12207037  0.99745618    -0.82600
C2173       C  0.39447393  0.10855326  0.49652925     0.97900
O2174       O  0.39296035  0.09413723  0.52358730    -0.82600
O2175       O  0.41328075  0.06441308  0.58086283    -0.85200
C2176       C  0.42771142  0.04565873  0.57266391     1.02500
O2177       O  0.44574781  0.04930669  0.55105845    -0.78000
O2178       O  0.48494223  0.07820422  0.51425779    -0.78200
C2179       C  0.47680802  0.08985875  0.98903997     1.02400
O2180       O  0.48472335  0.13173781  0.52581241    -0.85500
O2181       O  0.43947867  0.15562206  0.54154626    -0.82600
C2182       C  0.41779721  0.15862801  0.55484495     0.98000
O2183       O  0.40393455  0.13948984  0.56179059    -0.82600
O2184       O  0.42950629  0.11133409  0.61380371    -0.85200
C2185       C  0.44634656  0.09657040  0.62723628     1.02400
O2186       O  0.45605396  0.07865870  0.60970740    -0.78000
O2187       O  0.48966594  0.10892219  0.57394303    -0.78200
C2188       C  0.49751200  0.12587171  0.55281089     1.02400
Cr2189     Cr  0.44821277  0.12532117  0.51277424     1.93700
Cr2190     Cr  0.41220767  0.10214744  0.56816683     1.93200
Cr2191     Cr  0.46682146  0.08037017  0.56042351     1.39100
O2192       O  0.44227435  0.10244505  0.54666072    -1.23300
O2193       O  0.34099031  0.20725391  0.89861471    -0.85500
O2194       O  0.36487486  0.16228074  0.88132607    -0.82600
C2195       C  0.34830535  0.14462424  0.87953476     0.97900
O2196       O  0.33244791  0.14400827  0.85417131    -0.82600
O2197       O  0.30277300  0.16541287  0.79702673    -0.85200
C2198       C  0.28451262  0.17983976  0.80678169     1.02500
O2199       O  0.28894407  0.19743586  0.82924595    -0.78000
O2200       O  0.31950662  0.23552401  0.86788610    -0.78200
C2201       C  0.33048705  0.22905961  0.89618685     1.02400
O2202       O  0.37246682  0.23548061  0.85156982    -0.85500
O2203       O  0.39355847  0.19049489  0.82934417    -0.82600
C2204       C  0.39642561  0.16778780  0.81860833     0.98000
O2205       O  0.37717280  0.15354576  0.81476898    -0.82600
O2206       O  0.34915381  0.18172226  0.76427133    -0.85200
C2207       C  0.33515006  0.19993140  0.75246121     1.02400
O2208       O  0.31746364  0.20926523  0.77058096    -0.78000
O2209       O  0.34775549  0.24289316  0.80638357    -0.78200
C2210       C  0.36619537  0.24932451  0.82569275     1.02400
Cr2211     Cr  0.36598217  0.19838720  0.86272273     1.93700
Cr2212     Cr  0.34022513  0.16336546  0.80927906     1.93200
Cr2213     Cr  0.31988208  0.21900732  0.82015705     1.39100
O2214       O  0.34164231  0.19352848  0.83132116    -1.23300
O2215       O  0.13636662  0.22091397  0.61139154    -0.85500
O2216       O  0.14346333  0.16873769  0.61298671    -0.82600
C2217       C  0.14472918  0.14561647  0.62326036     0.97900
O2218       O  0.14559725  0.14059371  0.65620220    -0.82600
O2219       O  0.18772489  0.16640875  0.69324766    -0.85200
C2220       C  0.19960119  0.18579307  0.70570286     1.02500
O2221       O  0.19014718  0.20827587  0.70200083    -0.78000
O2222       O  0.17327315  0.22838308  0.63597779    -0.78200
C2223       C  0.15722039  0.23281200  0.61183400     1.02400
O2224       O  0.09735100  0.21766237  0.66203679    -0.85500
O2225       O  0.10018000  0.16366289  0.65613362    -0.82600
C2226       C  0.09585272  0.15665276  0.68702758     0.98000
O2227       O  0.11218744  0.16106534  0.71064965    -0.82600
O2228       O  0.15510142  0.18426527  0.74506282    -0.85200
C2229       C  0.15130774  0.20811592  0.75096192     1.02400
O2230       O  0.14085073  0.22171218  0.72799306    -0.78000
O2231       O  0.12834180  0.24552469  0.66861503    -0.78200
C2232       C  0.10490668  0.24057455  0.66718832     1.02400
Cr2233     Cr  0.12115029  0.19262764  0.63835262     1.93700
Cr2234     Cr  0.14945541  0.16506426  0.69890341     1.93200
Cr2235     Cr  0.15757179  0.22343606  0.68284833     1.39100
O2236       O  0.14351267  0.19343733  0.67285538    -1.23300
O2237       O  0.51412245  0.93075609  0.98815722    -0.85500
O2238       O  0.55375448  0.95897265  0.95161259    -0.82600
C2239       C  0.57146653  0.96274560  0.92957929     0.97900
O2240       O  0.58540192  0.94387765  0.92039716    -0.82600
O2241       O  0.60477771  0.91286923  0.97801574    -0.85200
C2242       C  0.59701628  0.90281844  0.50904375     1.02500
O2243       O  0.57960499  0.88589792  0.51050713    -0.78000
O2244       O  0.53219378  0.90720074  0.52157349    -0.78200
C2245       C  0.51200042  0.91975398  0.51542372     1.02400
O2246       O  0.50709326  0.90185147  0.92727275    -0.85500
O2247       O  0.54225050  0.93073625  0.89213744    -0.82600
C2248       C  0.55104489  0.91239125  0.87447003     0.98000
O2249       O  0.56807252  0.89745024  0.88719080    -0.82600
O2250       O  0.59397556  0.86846462  0.93896539    -0.85200
C2251       C  0.58009366  0.84905276  0.94424599     1.02400
O2252       O  0.55756286  0.85223376  0.95457277    -0.78000
O2253       O  0.51288387  0.87608069  0.97245255    -0.78200
C2254       C  0.49986408  0.88339097  0.94639772     1.02400
Cr2255     Cr  0.53153903  0.92887466  0.94148161     1.93700
Cr2256     Cr  0.58574051  0.90593603  0.93281796     1.93200
Cr2257     Cr  0.54914495  0.88157849  0.98593170     1.39100
O2258       O  0.55553087  0.90573512  0.95401773    -1.23300
O2259       O  0.51247298  0.07900185  0.76727491    -0.85500
O2260       O  0.55194803  0.05044494  0.80506655    -0.82600
C2261       C  0.56951463  0.04652536  0.82743209     0.97900
O2262       O  0.58311393  0.06532361  0.83716687    -0.82600
O2263       O  0.60272708  0.09336142  0.77863635    -0.85200
C2264       C  0.60102914  0.10762960  0.75146278     1.02500
O2265       O  0.58333674  0.12426924  0.74814687    -0.78000
O2266       O  0.53824472  0.10124034  0.73441673    -0.78200
C2267       C  0.51751873  0.08959667  0.73829357     1.02400
O2268       O  0.50564781  0.10891111  0.82673521    -0.79100
O2269       O  0.54048103  0.08028629  0.86365395    -0.82600
C2270       C  0.54972289  0.09852420  0.88107400     0.98000
O2271       O  0.56684366  0.11302154  0.86806318    -0.82600
O2272       O  0.59414241  0.13988746  0.81454831    -0.85200
C2273       C  0.58101678  0.15977235  0.80748948     1.02400
O2274       O  0.55816187  0.15715912  0.79822853    -0.78000
O2275       O  0.51232708  0.13462231  0.78169841    -0.78200
C2276       C  0.49853042  0.12700947  0.80671734     1.02400
Cr2277     Cr  0.52998449  0.08128530  0.81403179     1.93700
Cr2278     Cr  0.58436502  0.10285641  0.82300963     1.93200
Cr2279     Cr  0.54850982  0.12739000  0.76847425     1.39100
O2280       O  0.55423310  0.10371142  0.80138756    -1.23300
O2281       O  0.84758918  0.27092659  0.60951055    -0.85500
O2282       O  0.84818054  0.32348295  0.61068932    -0.82600
C2283       C  0.85039044  0.34645715  0.62087218     0.97900
O2284       O  0.85158569  0.35114251  0.65388428    -0.82600
O2285       O  0.80850442  0.32962728  0.69333490    -0.85200
C2286       C  0.79560490  0.31186663  0.70800814     1.02500
O2287       O  0.80310383  0.28858089  0.70589682    -0.78000
O2288       O  0.81210100  0.26825583  0.63999958    -0.78200
C2289       C  0.82468184  0.26382645  0.61267849     1.02400
O2290       O  0.89067242  0.26937897  0.65613295    -0.85500
O2291       O  0.89379647  0.32255444  0.65074348    -0.82600
C2292       C  0.89975692  0.32910391  0.68136684     0.98000
O2293       O  0.88403663  0.32617462  0.70601884    -0.82600
O2294       O  0.84079134  0.30735241  0.74389170    -0.85200
C2295       C  0.84357416  0.28316443  0.74923155     1.02400
O2296       O  0.85296483  0.26991544  0.72537610    -0.78000
O2297       O  0.85766089  0.24460825  0.66456195    -0.78200
C2298       C  0.88143497  0.24729557  0.66181501     1.02400
Cr2299     Cr  0.86857474  0.29672495  0.63437088     1.93700
Cr2300     Cr  0.84657388  0.32673180  0.69703998     1.93200
Cr2301     Cr  0.83230379  0.26994013  0.68322415     1.39100
O2302       O  0.84831043  0.29826755  0.67084816    -1.23300
O2303       O  0.65016106  0.29917385  0.89060562    -0.85500
O2304       O  0.62899542  0.34545620  0.87099959    -0.82600
C2305       C  0.64659091  0.36201356  0.87357556     0.97900
O2306       O  0.66418238  0.36308980  0.85077777    -0.82600
O2307       O  0.69782793  0.34399467  0.79779071    -0.85200
C2308       C  0.71418125  0.32800607  0.80922809     1.02500
O2309       O  0.70709387  0.31059980  0.83044942    -0.78000
O2310       O  0.67503426  0.27285076  0.86143254    -0.78200
C2311       C  0.66374523  0.27903819  0.88926710     1.02400
O2312       O  0.62284130  0.27320614  0.83734961    -0.85500
O2313       O  0.60487585  0.31899758  0.81294688    -0.82600
C2314       C  0.60273045  0.34226356  0.80424883     0.98000
O2315       O  0.62229712  0.35648665  0.80363655    -0.82600
O2316       O  0.65605109  0.33081835  0.75544397    -0.85200
C2317       C  0.67145479  0.31327972  0.74494072     1.02400
O2318       O  0.68446820  0.30013818  0.76623014    -0.78000
O2319       O  0.65111435  0.26556312  0.79641129    -0.78200
C2320       C  0.63131176  0.25917340  0.81310339     1.02400
Cr2321     Cr  0.62895540  0.30980612  0.85057555     1.93700
Cr2322     Cr  0.65975372  0.34626609  0.80362893     1.93200
Cr2323     Cr  0.67773173  0.28954580  0.81471060     1.39100
O2324       O  0.65564677  0.31507885  0.82314447    -1.23300
O2325       O  0.48668991  0.57410380  0.98971461    -0.85500
O2326       O  0.44696038  0.54479223  0.95493070    -0.82600
C2327       C  0.42900295  0.54059569  0.93339267     0.97900
O2328       O  0.41452220  0.55912513  0.92436172    -0.82600
O2329       O  0.39586900  0.58952280  0.98162792    -0.85200
C2330       C  0.39759855  0.60528808  0.00703194     1.02500
O2331       O  0.41563593  0.61908520  0.50897643    -0.78000
O2332       O  0.46319080  0.59835188  0.51914002    -0.78200
C2333       C  0.48379314  0.58656664  0.51328791     1.02400
O2334       O  0.49230939  0.60247539  0.92821529    -0.85500
O2335       O  0.45686525  0.57310478  0.89444864    -0.82600
C2336       C  0.44657224  0.59068540  0.87648043     0.98000
O2337       O  0.42969434  0.60546316  0.88956146    -0.82600
O2338       O  0.40444602  0.63426877  0.94154778    -0.85200
C2339       C  0.41833551  0.65387163  0.94512205     1.02400
O2340       O  0.44105343  0.65108011  0.95483907    -0.78000
O2341       O  0.48652476  0.62892628  0.97239931    -0.78200
C2342       C  0.49962970  0.62103477  0.94689819     1.02400
Cr2343     Cr  0.46840305  0.57527969  0.94351531     1.93700
Cr2344     Cr  0.41353078  0.59695141  0.93595581     1.93200
Cr2345     Cr  0.45061665  0.62261619  0.98708226     1.39100
O2346       O  0.44420822  0.59802363  0.95609455    -1.23300
O2347       O  0.48344495  0.42753573  0.76580786    -0.85500
O2348       O  0.44688925  0.45592008  0.80649936    -0.82600
C2349       C  0.42907862  0.45965152  0.82829447     0.97900
O2350       O  0.41405075  0.44136106  0.83548704    -0.82600
O2351       O  0.39432826  0.41544228  0.77473574    -0.85200
C2352       C  0.39512757  0.40061060  0.74824156     1.02500
O2353       O  0.41184876  0.38289462  0.74614156    -0.78000
O2354       O  0.45698650  0.40664306  0.73177240    -0.78200
C2355       C  0.47749674  0.41876106  0.73610360     1.02400
O2356       O  0.49087563  0.39459610  0.82350765    -0.85500
O2357       O  0.45715908  0.42281364  0.86235608    -0.82600
C2358       C  0.44539047  0.40562266  0.87901606     0.98000
O2359       O  0.42755352  0.39274148  0.86500484    -0.82600
O2360       O  0.40156622  0.36771022  0.81026215    -0.85200
C2361       C  0.41542639  0.34794078  0.80608609     1.02400
O2362       O  0.43821661  0.35039834  0.79650467    -0.78000
O2363       O  0.48388000  0.37245392  0.77594852    -0.78200
C2364       C  0.49833161  0.37856225  0.80093171     1.02400
Cr2365     Cr  0.46725864  0.42370570  0.81290703     1.93700
Cr2366     Cr  0.41167331  0.40441895  0.81959884     1.93200
Cr2367     Cr  0.44719339  0.37988257  0.76554521     1.39100
O2368       O  0.44211027  0.40300146  0.79896999    -1.23300
C2369       C  0.40597284  0.51055615  0.89275791    -0.21500
C2370       C  0.42865411  0.51721436  0.91038115    -0.09500
C2371       C  0.45165104  0.50591987  0.89866281     0.29300
C2372       C  0.45182728  0.48887214  0.87001444    -0.21500
C2373       C  0.42912286  0.48224657  0.85252799    -0.09500
C2374       C  0.40610723  0.49304831  0.86468822     0.29300
F2375       F  0.38368417  0.48678631  0.84918101    -0.20100
H2376       H  0.38805005  0.51942078  0.90030821     0.17700
H2377       H  0.46974261  0.48011629  0.86220524     0.17700
F2378       F  0.47419655  0.51228464  0.91375862    -0.20000
C2379       C  0.55907515  0.34143030  0.77821751    -0.21500
C2380       C  0.57687687  0.35323019  0.80029652    -0.09500
C2381       C  0.56861762  0.37275283  0.82311406     0.29300
C2382       C  0.54294429  0.38017082  0.82403999    -0.21500
C2383       C  0.52497449  0.36856905  0.80183141    -0.09500
C2384       C  0.53343948  0.34925981  0.77844572     0.29300
F2385       F  0.51701543  0.33773241  0.75597648    -0.20100
H2386       H  0.56502884  0.32595791  0.76098877     0.17700
H2387       H  0.53719664  0.39522444  0.84204466     0.17700
F2388       F  0.58513644  0.38371158  0.84589709    -0.20000
C2389       C  0.76502907  0.29650763  0.75373835    -0.21500
C2390       C  0.77449742  0.31731274  0.73358542    -0.09500
C2391       C  0.76611510  0.34243564  0.74223374     0.29300
C2392       C  0.74792711  0.34619918  0.76898576    -0.21500
C2393       C  0.73827282  0.32518952  0.78859831    -0.09500
C2394       C  0.74758181  0.30029780  0.78088773     0.29300
F2395       F  0.73846384  0.27916133  0.79782389    -0.20100
H2396       H  0.77123305  0.27685894  0.74871153     0.17700
H2397       H  0.74078563  0.36556613  0.77372660     0.17700
F2398       F  0.77525209  0.36332588  0.72482278    -0.20000
C2399       C  0.62022408  0.18721655  0.80527750    -0.21500
C2400       C  0.59342697  0.18565306  0.80736265    -0.09500
C2401       C  0.57917304  0.20883987  0.80761912     0.29300
C2402       C  0.59161279  0.23281091  0.80790334    -0.21500
C2403       C  0.61839639  0.23422335  0.80665000    -0.09500
C2404       C  0.63257535  0.21117441  0.80458324     0.29300
F2405       F  0.65845349  0.21174987  0.80405030    -0.20100
H2406       H  0.63175136  0.16977829  0.80424991     0.17700
H2407       H  0.58030822  0.25036707  0.80969473     0.17700
F2408       F  0.55330018  0.20841216  0.80859473    -0.20000
C2409       C  0.59363009  0.01365911  0.86373599    -0.21500
C2410       C  0.57030288  0.02273545  0.84984894    -0.09500
C2411       C  0.54759126  0.01313240  0.86454066     0.29300
C2412       C  0.54827917  0.99539947  0.89256868    -0.21500
C2413       C  0.57156303  0.98611083  0.90627058    -0.09500
C2414       C  0.59430485  0.99511570  0.89087670     0.29300
F2415       F  0.61724029  0.98598499  0.90211658    -0.20100
H2416       H  0.61143254  0.02117646  0.85372601     0.17700
H2417       H  0.53042182  0.98811947  0.90271869     0.17700
F2418       F  0.52459600  0.02184255  0.85294746    -0.20000
C2419       C  0.44269570  0.17377533  0.80561722    -0.21500
C2420       C  0.42238377  0.15720720  0.81374925    -0.09500
C2421       C  0.42749615  0.13082781  0.82000079     0.29300
C2422       C  0.45250433  0.12147827  0.81899888    -0.21500
C2423       C  0.47275635  0.13800099  0.81070964    -0.09500
C2424       C  0.46765479  0.16419555  0.80349616     0.29300
F2425       F  0.48683063  0.18058050  0.79504554    -0.20100
H2426       H  0.43921186  0.19415840  0.80080462     0.17700
H2427       H  0.45598899  0.10109932  0.82389621     0.17700
F2428       F  0.40846959  0.11415389  0.82800355    -0.20000
C2429       C  0.25537461  0.15865912  0.76190981    -0.21500
C2430       C  0.26046514  0.17955918  0.78479391    -0.09500
C2431       C  0.24567341  0.20213080  0.78035147     0.29300
C2432       C  0.22725076  0.20392399  0.75364284    -0.21500
C2433       C  0.22198963  0.18315516  0.73073788    -0.09500
C2434       C  0.23624055  0.16022359  0.73567281     0.29300
F2435       F  0.23222968  0.13955196  0.71468231    -0.20100
H2436       H  0.26672071  0.14113280  0.76377737     0.17700
H2437       H  0.21683846  0.22195126  0.75119760     0.17700
F2438       F  0.24981460  0.22317651  0.80062926    -0.20000
C2439       C  0.37021106  0.29201303  0.79513045    -0.21500
C2440       C  0.38004367  0.27384318  0.81911930    -0.09500
C2441       C  0.40256667  0.27993483  0.83769776     0.29300
C2442       C  0.41451431  0.30381003  0.83267636    -0.21500
C2443       C  0.40401075  0.32214982  0.80972120    -0.09500
C2444       C  0.38192980  0.31600491  0.79067464     0.29300
F2445       F  0.37184547  0.33316213  0.76743074    -0.20100
H2446       H  0.35309911  0.28790326  0.78028800     0.17700
H2447       H  0.43156711  0.30827946  0.84745996     0.17700
F2448       F  0.41299842  0.26301437  0.86098906    -0.20000
C2449       C  0.35121161  0.11964546  0.97117629    -0.21500
C2450       C  0.37321435  0.10399639  0.96906920    -0.09500
C2451       C  0.38167849  0.09646711  0.93573862     0.29300
C2452       C  0.37001067  0.10645599  0.90537969    -0.21500
C2453       C  0.34993968  0.12454564  0.90745740    -0.09500
C2454       C  0.33970566  0.12990843  0.94071993     0.29300
F2455       F  0.32079563  0.14777702  0.94403935    -0.20100
H2456       H  0.34470975  0.12635939  0.99644180     0.17700
H2457       H  0.37877268  0.10254228  0.88034023     0.17700
F2458       F  0.40339258  0.08224602  0.93254531    -0.20000
C2459       C  0.51631073  0.11878894  0.91566509    -0.21500
C2460       C  0.53770120  0.10243265  0.91519928    -0.09500
C2461       C  0.53945799  0.08242294  0.94018682     0.29300
C2462       C  0.51957207  0.07815617  0.96394870    -0.21500
C2463       C  0.49719906  0.09324633  0.96252742    -0.09500
C2464       C  0.49615473  0.11419917  0.93871566     0.29300
F2465       F  0.47560689  0.13029192  0.93742164    -0.20100
H2466       H  0.51408317  0.13369322  0.89584255     0.17700
H2467       H  0.52130151  0.06245708  0.98266997     0.17700
F2468       F  0.55944541  0.06561406  0.93952749    -0.20000
C2469       C  0.47725994  0.11794729  0.66480846    -0.21500
C2470       C  0.45754649  0.09994550  0.66202762    -0.09500
C2471       C  0.45699037  0.07894425  0.68558922     0.29300
C2472       C  0.47650380  0.07544555  0.71032450    -0.21500
C2473       C  0.49736721  0.09234454  0.71119518    -0.09500
C2474       C  0.49711858  0.11414278  0.68877133     0.29300
F2475       F  0.51619617  0.13177612  0.68965137    -0.20100
H2476       H  0.47855709  0.13371821  0.64613952     0.17700
H2477       H  0.47578502  0.05898199  0.72790186     0.17700
F2478       F  0.43867088  0.06063334  0.68260300    -0.20000
C2479       C  0.44993651  0.99523207  0.63900590    -0.21500
C2480       C  0.42701402  0.98866116  0.65595310    -0.09500
C2481       C  0.40412901  0.99922147  0.64260927     0.29300
C2482       C  0.40430547  0.01625217  0.61382957    -0.21500
C2483       C  0.42717442  0.02269053  0.59663567    -0.09500
C2484       C  0.45006801  0.01179228  0.60963196     0.29300
F2485       F  0.47277967  0.01800101  0.59494435    -0.20100
H2486       H  0.46777641  0.98663518  0.64762767     0.17700
H2487       H  0.38644779  0.02485748  0.60528499     0.17700
F2488       F  0.38146584  0.99292327  0.65736398    -0.20000
C2489       C  0.51939682  0.93211208  0.79172510    -0.21500
C2490       C  0.49754893  0.91650090  0.79317608    -0.09500
C2491       C  0.49701557  0.89597418  0.81765650     0.29300
C2492       C  0.51736461  0.89194824  0.84076371    -0.21500
C2493       C  0.53836993  0.90855607  0.84076599    -0.09500
C2494       C  0.53940255  0.92848894  0.81565789     0.29300
F2495       F  0.55887203  0.94567914  0.81613459    -0.20100
H2496       H  0.52066978  0.94763560  0.77270636     0.17700
H2497       H  0.51561845  0.87721642  0.86086504     0.17700
F2498       F  0.47675188  0.87981157  0.81964576    -0.20000
C2499       C  0.45371378  0.93671762  0.56881131    -0.21500
C2500       C  0.44979267  0.91339885  0.58717372    -0.09500
C2501       C  0.46462418  0.89169997  0.57875561     0.29300
C2502       C  0.48521699  0.89427563  0.55591830    -0.21500
C2503       C  0.49077235  0.91830590  0.54037525    -0.09500
C2504       C  0.47399657  0.93916513  0.54540172     0.29300
F2505       F  0.47830162  0.96233894  0.52974006    -0.20100
H2506       H  0.44276663  0.95383889  0.57552934     0.17700
H2507       H  0.49713923  0.87752809  0.55079248     0.17700
F2508       F  0.46121541  0.86893821  0.59591796    -0.20000
C2509       C  0.55267886  0.66988603  0.94005876    -0.21500
C2510       C  0.57406689  0.65372248  0.93541818    -0.09500
C2511       C  0.57047862  0.62677016  0.93345119     0.29300
C2512       C  0.54597933  0.61642087  0.93564792    -0.21500
C2513       C  0.52476557  0.63259515  0.94074675    -0.09500
C2514       C  0.52826867  0.65941931  0.94319779     0.29300
F2515       F  0.50372715  0.67787074  0.43441351    -0.20100
H2516       H  0.55487012  0.69067459  0.94151404     0.17700
H2517       H  0.54364098  0.59563437  0.93440593     0.17700
F2518       F  0.59051740  0.61038222  0.92895991    -0.20000
C2519       C  0.62876282  0.79468451  0.94445286    -0.21500
C2520       C  0.61374253  0.77305081  0.93757581    -0.09500
C2521       C  0.58728372  0.77631836  0.93260324     0.29300
C2522       C  0.57612458  0.80099522  0.93523337    -0.21500
C2523       C  0.59138904  0.82281189  0.94115491    -0.09500
C2524       C  0.61790694  0.81931370  0.94546752     0.29300
F2525       F  0.63356764  0.83971335  0.95052151    -0.20100
H2526       H  0.64924175  0.79266101  0.94743304     0.17700
H2527       H  0.55570304  0.80313471  0.93183118     0.17700
F2528       F  0.57230943  0.75571116  0.92523088    -0.20000
C2529       C  0.74442658  0.70032947  0.98202623    -0.21500
C2530       C  0.73501103  0.67808561  0.96542832    -0.09500
C2531       C  0.73880302  0.70038678  0.49300122     0.29300
C2532       C  0.75556203  0.69823938  0.52173332    -0.21500
C2533       C  0.76476421  0.67398756  0.53327300    -0.09500
C2534       C  0.76238234  0.69851347  0.00944823     0.29300
F2535       F  0.77104842  0.72068796  0.02401481    -0.20100
H2536       H  0.73691697  0.71920445  0.97492831     0.17700
H2537       H  0.76212306  0.71577247  0.53417062     0.17700
F2538       F  0.72998678  0.72418740  0.48371461    -0.20000
C2539       C  0.92302500  0.19569009  0.70185601    -0.21500
C2540       C  0.91491944  0.17404301  0.68270751    -0.09500
C2541       C  0.89984288  0.17786436  0.65271164     0.29300
C2542       C  0.89113926  0.20260759  0.64394805    -0.21500
C2543       C  0.89732791  0.22391252  0.66482384    -0.09500
C2544       C  0.91413052  0.22053974  0.69312597     0.29300
F2545       F  0.91993371  0.24075613  0.71416809    -0.20100
H2546       H  0.93481541  0.19316107  0.72493126     0.17700
H2547       H  0.87837700  0.20496750  0.62184772     0.17700
F2548       F  0.89286384  0.15756448  0.63250507    -0.20000
C2549       C  0.03366830  0.13415738  0.72813899    -0.21500
C2550       C  0.02248846  0.12037849  0.70021110    -0.09500
C2551       C  0.03656169  0.11735816  0.66925732     0.29300
C2552       C  0.06067323  0.12851290  0.66604615    -0.21500
C2553       C  0.07161411  0.14272689  0.69358690    -0.09500
C2554       C  0.05800364  0.14514317  0.72497222     0.29300
F2555       F  0.06760363  0.15911083  0.75187909    -0.20100
H2556       H  0.02345884  0.13667638  0.75249075     0.17700
H2557       H  0.07072466  0.12632146  0.64150532     0.17700
F2558       F  0.02688305  0.10417230  0.64168025    -0.20000
C2559       C  0.91586393  0.79777968  0.56477436    -0.21500
C2560       C  0.89987981  0.81944931  0.56011708    -0.09500
C2561       C  0.87342737  0.81551839  0.55573060     0.29300
C2562       C  0.86333091  0.79060537  0.55645952    -0.21500
C2563       C  0.87915295  0.76912443  0.56231999    -0.09500
C2564       C  0.90557075  0.77282732  0.56637936     0.29300
F2565       F  0.92138252  0.75230441  0.57183118    -0.20100
H2566       H  0.93626156  0.80019056  0.56771929     0.17700
H2567       H  0.84290237  0.78818340  0.55381113     0.17700
F2568       F  0.85718512  0.83570969  0.55037229    -0.20000
C2569       C  0.89536644  0.00535277  0.64415262    -0.21500
C2570       C  0.91888078  0.01215720  0.65929179    -0.09500
C2571       C  0.94138364  0.00249153  0.64386058     0.29300
C2572       C  0.94029510  0.98715476  0.61366517    -0.21500
C2573       C  0.91681260  0.98046769  0.59838932    -0.09500
C2574       C  0.89427290  0.98926458  0.61463656     0.29300
F2575       F  0.87112924  0.98226959  0.60196328    -0.20100
H2576       H  0.87775718  0.01297427  0.65484874     0.17700
H2577       H  0.95796370  0.97983041  0.60278511     0.17700
F2578       F  0.96460653  0.00914432  0.65661106    -0.20000
C2579       C  0.07013781  0.29446367  0.71069625    -0.21500
C2580       C  0.07562155  0.31467932  0.68712942    -0.09500
C2581       C  0.08526209  0.30861097  0.65399217     0.29300
C2582       C  0.09103757  0.28300004  0.64561203    -0.21500
C2583       C  0.08781878  0.26302646  0.67021431    -0.09500
C2584       C  0.07656608  0.26879840  0.70253411     0.29300
F2585       F  0.07431784  0.25015749  0.72743309    -0.20100
H2586       H  0.06244581  0.29875986  0.73630444     0.17700
H2587       H  0.10019002  0.27908438  0.62090806     0.17700
F2588       F  0.08984958  0.32751599  0.63010809    -0.20000
C2589       C  0.93832544  0.35090397  0.65779754    -0.21500
C2590       C  0.92480586  0.34146747  0.68694404    -0.09500
C2591       C  0.93538858  0.34439379  0.72046379     0.29300
C2592       C  0.95899778  0.35647965  0.72450556    -0.21500
C2593       C  0.97231561  0.36616409  0.69533602    -0.09500
C2594       C  0.96168981  0.36328862  0.66186865     0.29300
F2595       F  0.97396593  0.37208718  0.63298948    -0.20100
H2596       H  0.93067471  0.34898012  0.63160676     0.17700
H2597       H  0.96672566  0.35854948  0.75063691     0.17700
F2598       F  0.92314671  0.33539393  0.74925200    -0.20000
C2599       C  0.04940954  0.50934444  0.61201663    -0.21500
C2600       C  0.07189152  0.51548074  0.59373265    -0.09500
C2601       C  0.09460322  0.50288668  0.60421484     0.29300
C2602       C  0.09446606  0.48407940  0.63125940    -0.21500
C2603       C  0.07197645  0.47828094  0.64997242    -0.09500
C2604       C  0.04943329  0.49146678  0.63992176     0.29300
F2605       F  0.02699039  0.48635876  0.65610145    -0.20100
H2606       H  0.03171931  0.51917115  0.60545707     0.17700
H2607       H  0.11202567  0.47391770  0.63751320     0.17700
F2608       F  0.11688647  0.50849784  0.58797210    -0.20000
C2609       C  0.94236737  0.66351570  0.54300369    -0.21500
C2610       C  0.92434368  0.65058355  0.56351261    -0.09500
C2611       C  0.93125075  0.62754534  0.58073991     0.29300
C2612       C  0.95567680  0.61722549  0.57679622    -0.21500
C2613       C  0.97351092  0.62947943  0.55514282    -0.09500
C2614       C  0.96673631  0.65293593  0.53843824     0.29300
F2615       F  0.96133282  0.58504861  0.05591962    -0.20100
H2616       H  0.91838895  0.60972320  0.06038023     0.17700
H2617       H  0.96043191  0.59929220  0.59011785     0.17700
F2618       F  0.91454281  0.61533959  0.60211034    -0.20000
C2619       C  0.38581292  0.40863185  0.68569777    -0.21500
C2620       C  0.37651622  0.40192064  0.71895144    -0.09500
C2621       C  0.35399439  0.38730186  0.72086002     0.29300
C2622       C  0.34313358  0.37681488  0.69034619    -0.21500
C2623       C  0.35429591  0.38108470  0.65741390    -0.09500
C2624       C  0.37482722  0.39842755  0.65524978     0.29300
F2625       F  0.38659542  0.40251314  0.62415385    -0.20100
H2626       H  0.40349069  0.41926236  0.68346762     0.17700
H2627       H  0.32780271  0.36298938  0.69292569     0.17700
F2628       F  0.34461456  0.38015239  0.75247856    -0.20000
C2629       C  0.33262001  0.27541377  0.91494337    -0.21500
C2630       C  0.33618974  0.24898313  0.92294388    -0.09500
C2631       C  0.34965552  0.24242850  0.95370141     0.29300
C2632       C  0.35759111  0.26169487  0.97667761    -0.21500
C2633       C  0.35178971  0.28783142  0.97033338    -0.09500
C2634       C  0.34048864  0.29465281  0.93827351     0.29300
F2635       F  0.33624052  0.31984973  0.93004413    -0.20100
H2636       H  0.32379665  0.28127309  0.89050517     0.17700
H2637       H  0.37484333  0.28209547  0.47322992     0.17700
F2638       F  0.35468407  0.21738008  0.96221225    -0.20000
C2639       C  0.35745641  0.23278482  0.71860722    -0.21500
C2640       C  0.33922662  0.21307192  0.71911410    -0.09500
C2641       C  0.31883988  0.21411643  0.69522742     0.29300
C2642       C  0.31644771  0.23485365  0.67187610    -0.21500
C2643       C  0.33389888  0.25535765  0.67261004    -0.09500
C2644       C  0.35478194  0.25387851  0.69585205     0.29300
F2645       F  0.37266758  0.27274690  0.69665728    -0.20100
H2646       H  0.37261251  0.23296788  0.73793144     0.17700
H2647       H  0.30054736  0.23519757  0.65373683     0.17700
F2648       F  0.30010288  0.19611999  0.69654281    -0.20000
C2649       C  0.38442325  0.21500634  0.59664549    -0.21500
C2650       C  0.38266945  0.23238477  0.56844705    -0.09500
C2651       C  0.39372013  0.22596425  0.53623890     0.29300
C2652       C  0.40641033  0.20228110  0.53243250    -0.21500
C2653       C  0.40751109  0.18463843  0.56042260    -0.09500
C2654       C  0.39637813  0.19108645  0.59254549     0.29300
F2655       F  0.39708999  0.17424360  0.61987720    -0.20100
H2656       H  0.37598106  0.21977241  0.62167972     0.17700
H2657       H  0.41461695  0.19731638  0.50734291     0.17700
F2658       F  0.39261129  0.24267759  0.50884081    -0.20000
C2659       C  0.25680210  0.33028070  0.96283873    -0.21500
C2660       C  0.23177073  0.33302755  0.97444939    -0.09500
C2661       C  0.24226548  0.34676294  0.48775967     0.29300
C2662       C  0.25825052  0.34809445  0.51720330    -0.21500
C2663       C  0.26518940  0.32566605  0.53618904    -0.09500
C2664       C  0.27707501  0.33245175  0.98646752     0.29300
F2665       F  0.30101527  0.33115351  0.97365632    -0.20100
H2666       H  0.26068431  0.32665897  0.93547413     0.17700
H2667       H  0.26595353  0.36669400  0.52455480     0.17700
F2668       F  0.23573054  0.36890916  0.47068437    -0.20000
C2669       C  0.13053209  0.39311794  0.84279190    -0.21500
C2670       C  0.14765853  0.37227011  0.83959496    -0.09500
C2671       C  0.15407711  0.36376976  0.80575584     0.29300
C2672       C  0.14120290  0.37362670  0.77628943    -0.21500
C2673       C  0.12162122  0.39202690  0.78004113    -0.09500
C2674       C  0.11737419  0.40273905  0.81333848     0.29300
F2675       F  0.09836238  0.42031425  0.81798246    -0.20100
H2676       H  0.12482510  0.39963044  0.86851656     0.17700
H2677       H  0.14444383  0.36466047  0.75111701     0.17700
F2678       F  0.17015846  0.34332402  0.80170174    -0.20000
C2679       C  0.18126919  0.28928920  0.55766510    -0.21500
C2680       C  0.15887956  0.29584193  0.53887415    -0.09500
C2681       C  0.13595126  0.28413578  0.54779444     0.29300
C2682       C  0.13609730  0.26362965  0.57129235    -0.21500
C2683       C  0.15889498  0.25505368  0.58762548    -0.09500
C2684       C  0.18135142  0.26892245  0.58190424     0.29300
F2685       F  0.20356756  0.26164886  0.59745944    -0.20100
H2686       H  0.19535190  0.30105948  0.05368792     0.17700
H2687       H  0.11818006  0.25382566  0.57558627     0.17700
F2688       F  0.11417088  0.28975162  0.52993468    -0.20000
C2689       C  0.17778531  0.22763449  0.83963405    -0.21500
C2690       C  0.18304334  0.25394738  0.83289579    -0.09500
C2691       C  0.18208414  0.26308105  0.79847065     0.29300
C2692       C  0.17241831  0.24743910  0.77229266    -0.21500
C2693       C  0.16402221  0.22212895  0.77961091    -0.09500
C2694       C  0.16843764  0.21164836  0.81295684     0.29300
F2695       F  0.16180092  0.18691722  0.82042374    -0.20100
H2696       H  0.17838862  0.22017214  0.86614177     0.17700
H2697       H  0.17072027  0.25557816  0.74621914     0.17700
F2698       F  0.18811055  0.28797643  0.79079695    -0.20000
C2699       C  0.97651576  0.89056302  0.69624612    -0.21500
C2700       C  0.98427908  0.91475372  0.70997254    -0.09500
C2701       C  0.96850427  0.93631043  0.70419647     0.29300
C2702       C  0.94745021  0.93409556  0.68156807    -0.21500
C2703       C  0.94191343  0.91040146  0.66480637    -0.09500
C2704       C  0.95534673  0.88829945  0.67473003     0.29300
F2705       F  0.95073261  0.86525749  0.65906043    -0.20100
H2706       H  0.98723341  0.87296799  0.70134162     0.17700
H2707       H  0.93714408  0.95145621  0.67406238     0.17700
F2708       F  0.97431479  0.95961344  0.71819464    -0.20000
C2709       C  0.01242846  0.88268155  0.91826804    -0.21500
C2710       C  0.02724997  0.90361004  0.90752365    -0.09500
C2711       C  0.02482400  0.92754676  0.92449432     0.29300
C2712       C  0.00627511  0.93089214  0.95028995    -0.21500
C2713       C  0.98979625  0.91053691  0.95854458    -0.09500
C2714       C  0.99375493  0.88605279  0.94348675     0.29300
F2715       F  0.97938445  0.86538459  0.95285194    -0.20100
H2716       H  0.01382283  0.86428626  0.90487960     0.17700
H2717       H  0.00398527  0.94959342  0.96259436     0.17700
F2718       F  0.03841075  0.94829773  0.91351140    -0.20000
C2719       C  0.13313162  0.11927824  0.53312574    -0.21500
C2720       C  0.11161349  0.10387257  0.53931417    -0.09500
C2721       C  0.10623816  0.09675925  0.57425068     0.29300
C2722       C  0.12026865  0.10724021  0.60224875    -0.21500
C2723       C  0.13948282  0.12556319  0.59611275    -0.09500
C2724       C  0.14677127  0.13019277  0.56107913     0.29300
F2725       F  0.16520231  0.14772651  0.55376891    -0.20100
H2726       H  0.13765364  0.12533459  0.50670795     0.17700
H2727       H  0.11400358  0.10340485  0.62873429     0.17700
F2728       F  0.08590959  0.08153273  0.58151607    -0.20000
C2729       C  0.11030748  0.18957434  0.96911729    -0.21500
C2730       C  0.10304061  0.17453676  0.94007120    -0.09500
C2731       C  0.10879465  0.18370712  0.90635392     0.29300
C2732       C  0.12076351  0.20772446  0.90204217    -0.21500
C2733       C  0.12759675  0.22285082  0.93118458    -0.09500
C2734       C  0.12246063  0.21334543  0.96482976     0.29300
F2735       F  0.12824423  0.22744408  0.99361493    -0.20100
H2736       H  0.10632307  0.18306360  0.99550198     0.17700
H2737       H  0.12465151  0.21455233  0.87577684     0.17700
F2738       F  0.10227625  0.16992201  0.87760012    -0.20000
C2739       C  0.08195401  0.98748528  0.86741270    -0.21500
C2740       C  0.05965587  0.98116624  0.84822703    -0.09500
C2741       C  0.03749366  0.99579518  0.85567896     0.29300
C2742       C  0.03734199  0.01494819  0.88147749    -0.21500
C2743       C  0.05933640  0.02157714  0.90078118    -0.09500
C2744       C  0.08193540  0.00760660  0.89296657     0.29300
F2745       F  0.10389426  0.01310283  0.91013274    -0.20100
H2746       H  0.09928763  0.97644157  0.86328234     0.17700
H2747       H  0.01954159  0.02522776  0.88551458     0.17700
F2748       F  0.01532294  0.99143450  0.83832006    -0.20000
C2749       C  0.97215114  0.06177460  0.54780553    -0.21500
C2750       C  0.98444713  0.08513380  0.54077329    -0.09500
C2751       C  0.97438907  0.10832604  0.55541534     0.29300
C2752       C  0.95471443  0.10756712  0.57937400    -0.21500
C2753       C  0.94549596  0.08388671  0.59054509    -0.09500
C2754       C  0.95262133  0.06117423  0.57265950     0.29300
F2755       F  0.94229037  0.03817808  0.58168676    -0.20100
H2756       H  0.97850884  0.04397942  0.53569067     0.17700
H2757       H  0.94929588  0.12524376  0.59267915     0.17700
F2758       F  0.98421184  0.13200472  0.54813708    -0.20000
C2759       C  0.03189628  0.07080946  0.82713729    -0.21500
C2760       C  0.03039055  0.09549871  0.84229817    -0.09500
C2761       C  0.01146667  0.11284899  0.83102104     0.29300
C2762       C  0.99218504  0.10445194  0.80913206    -0.21500
C2763       C  0.99215255  0.07903162  0.79632189    -0.09500
C2764       C  0.01291827  0.06263187  0.80383787     0.29300
F2765       F  0.01401457  0.03840928  0.79039167    -0.20100
H2766       H  0.04637029  0.05715195  0.83568847     0.17700
H2767       H  0.97717103  0.11802883  0.80214137     0.17700
F2768       F  0.01009239  0.13709950  0.84441596    -0.20000
C2769       C  0.56168661  0.15711916  0.53648020    -0.21500
C2770       C  0.57161076  0.15855755  0.57052425    -0.09500
C2771       C  0.55675696  0.14944207  0.59869430     0.29300
C2772       C  0.53260653  0.13916854  0.59271340    -0.21500
C2773       C  0.52257395  0.13798607  0.55876115    -0.09500
C2774       C  0.53736749  0.14704961  0.53057339     0.29300
F2775       F  0.52877501  0.14536012  0.49717272    -0.20100
H2776       H  0.57275966  0.16380484  0.51436779     0.17700
H2777       H  0.52175764  0.13201362  0.61474506     0.17700
F2778       F  0.56572710  0.14979266  0.63203104    -0.20000
C2779       C  0.67814740  0.22044165  0.94576113    -0.21500
C2780       C  0.65804646  0.22172730  0.96974793    -0.09500
C2781       C  0.64059590  0.24234335  0.96797697     0.29300
C2782       C  0.64335242  0.26158320  0.94272493    -0.21500
C2783       C  0.66348578  0.26049931  0.91859862    -0.09500
C2784       C  0.68071233  0.23946350  0.91997883     0.29300
F2785       F  0.70037239  0.23758909  0.89706022    -0.20100
H2786       H  0.69252528  0.20539636  0.94804461     0.17700
H2787       H  0.62953134  0.27723910  0.94192263     0.17700
F2788       F  0.62190997  0.24478665  0.99229918    -0.20000
C2789       C  0.65150759  0.27541536  0.67051420    -0.21500
C2790       C  0.67429351  0.26148204  0.66349152    -0.09500
C2791       C  0.69739865  0.27167396  0.67527427     0.29300
C2792       C  0.69698266  0.29313292  0.69776921    -0.21500
C2793       C  0.67355649  0.30446174  0.70856534    -0.09500
C2794       C  0.65116704  0.29695453  0.69205393     0.29300
F2795       F  0.62836800  0.30746295  0.70130021    -0.20100
H2796       H  0.63327110  0.26876253  0.66091506     0.17700
H2797       H  0.71464276  0.29884330  0.71022959     0.17700
F2798       F  0.71981492  0.25956123  0.66817715    -0.20000
C2799       C  0.62357739  0.11271422  0.65962646    -0.21500
C2800       C  0.64365361  0.13028656  0.66405165    -0.09500
C2801       C  0.65403091  0.13331212  0.69786383     0.29300
C2802       C  0.64235979  0.12173892  0.72697748    -0.21500
C2803       C  0.62004564  0.10720697  0.72293418    -0.09500
C2804       C  0.61164992  0.10152809  0.68881011     0.29300
F2805       F  0.58977518  0.08806731  0.68398720    -0.20100
H2806       H  0.61493645  0.11027971  0.63409647     0.17700
H2807       H  0.64885500  0.12687546  0.75294049     0.17700
F2808       F  0.67360909  0.14989922  0.70323017    -0.20000
C2809       C  0.96228521  0.15656271  0.98588415    -0.21500
C2810       C  0.98028237  0.15881897  0.95880251    -0.09500
C2811       C  0.97179871  0.16746387  0.92593252     0.29300
C2812       C  0.94566738  0.17152755  0.91963916    -0.21500
C2813       C  0.92736670  0.16695624  0.94596579    -0.09500
C2814       C  0.93616266  0.16055754  0.97973036     0.29300
F2815       F  0.91951122  0.15615686  0.00619571    -0.20100
H2816       H  0.96817110  0.14921808  0.01114448     0.17700
H2817       H  0.93967174  0.17706421  0.89352495     0.17700
F2818       F  0.98846566  0.16942709  0.89896861    -0.20000
C2819       C  0.88476882  0.09270782  0.82263943    -0.21500
C2820       C  0.87529739  0.09952821  0.78935798    -0.09500
C2821       C  0.85250988  0.11378050  0.78716165     0.29300
C2822       C  0.84127624  0.12365559  0.81758958    -0.21500
C2823       C  0.85285712  0.11996593  0.85062979    -0.09500
C2824       C  0.87349645  0.10257122  0.85316112     0.29300
F2825       F  0.88515272  0.09827013  0.88438442    -0.20100
H2826       H  0.90252015  0.08197563  0.82485376     0.17700
H2827       H  0.82536523  0.13699429  0.81481954     0.17700
F2828       F  0.84319845  0.12128634  0.75552104    -0.20000
C2829       C  0.83072913  0.20889335  0.55562397    -0.21500
C2830       C  0.82766698  0.22173834  0.52360465    -0.09500
C2831       C  0.81590343  0.24640158  0.52271623     0.29300
C2832       C  0.80988068  0.25895285  0.55358039    -0.21500
C2833       C  0.81532790  0.24713825  0.58551926    -0.09500
C2834       C  0.82400892  0.22136608  0.58652432     0.29300
F2835       F  0.82910206  0.20960852  0.61758925    -0.20100
H2836       H  0.83907427  0.18968477  0.55675993     0.17700
H2837       H  0.80367391  0.27898469  0.55256895     0.17700
F2838       F  0.81264881  0.25542931  0.99568846    -0.20000
C2839       C  0.82352436  0.28014643  0.80945884    -0.21500
C2840       C  0.83001212  0.26886868  0.77739027    -0.09500
C2841       C  0.82246553  0.24297383  0.77121939     0.29300
C2842       C  0.81255289  0.22786400  0.79807620    -0.21500
C2843       C  0.81010087  0.23792329  0.83166605    -0.09500
C2844       C  0.81334962  0.26474527  0.83640752     0.29300
F2845       F  0.80991555  0.27522219  0.86848270    -0.20100
H2846       H  0.82776377  0.30027863  0.81437292     0.17700
H2847       H  0.81012816  0.20731510  0.79374202     0.17700
F2848       F  0.82587703  0.23154562  0.73963847    -0.20000
C2849       C  0.74523913  0.16171169  0.97031544    -0.21500
C2850       C  0.77023111  0.16425991  0.98293061    -0.09500
C2851       C  0.77028933  0.17358199  0.51457390     0.29300
C2852       C  0.75020207  0.17587821  0.53860560    -0.21500
C2853       C  0.72499449  0.17209622  0.52808019    -0.09500
C2854       C  0.72428023  0.16164278  0.99348247     0.29300
F2855       F  0.70047030  0.15969105  0.97979775    -0.20100
H2856       H  0.74181655  0.16089237  0.94240346     0.17700
H2857       H  0.75434533  0.18126623  0.56535859     0.17700
F2858       F  0.79426101  0.17637768  0.52659102    -0.20000
C2859       C  0.64206208  0.38107815  0.96762379    -0.21500
C2860       C  0.62259058  0.39988686  0.96586994    -0.09500
C2861       C  0.61644314  0.41054923  0.93297247     0.29300
C2862       C  0.62771213  0.40076618  0.90235507    -0.21500
C2863       C  0.64499932  0.37989477  0.90385763    -0.09500
C2864       C  0.65313881  0.37111789  0.93697104     0.29300
F2865       F  0.66941220  0.35066714  0.93952400    -0.20100
H2866       H  0.64659767  0.37194694  0.99244776     0.17700
H2867       H  0.62087817  0.40766718  0.87724793     0.17700
F2868       F  0.59716437  0.42807465  0.93006321    -0.20000
C2869       C  0.47423301  0.42738302  0.95985447    -0.21500
C2870       C  0.49668672  0.41244414  0.95861745    -0.09500
C2871       C  0.49704579  0.39010280  0.93755738     0.29300
C2872       C  0.47631918  0.38435250  0.91602072    -0.21500
C2873       C  0.45525705  0.40109093  0.91414453    -0.09500
C2874       C  0.45371993  0.42184992  0.93769857     0.29300
F2875       F  0.43371992  0.43862663  0.93606646    -0.20100
H2876       H  0.47296258  0.44397957  0.97696516     0.17700
H2877       H  0.47814991  0.36858757  0.89757415     0.17700
F2878       F  0.51754284  0.37392677  0.93727651    -0.20000
C2879       C  0.53561564  0.43391979  0.68130399    -0.21500
C2880       C  0.53675374  0.41203485  0.65963736    -0.09500
C2881       C  0.51859580  0.39249712  0.66376779     0.29300
C2882       C  0.49882729  0.39550899  0.68778999    -0.21500
C2883       C  0.49702516  0.41786380  0.70851384    -0.09500
C2884       C  0.51614228  0.43667880  0.70597816     0.29300
F2885       F  0.51530026  0.45823922  0.72607830    -0.20100
H2886       H  0.54880330  0.44972406  0.67733109     0.17700
H2887       H  0.48485140  0.38025374  0.69017245     0.17700
F2888       F  0.51847291  0.37176266  0.64208439    -0.20000
C2889       C  0.62035793  0.29843634  0.59741088    -0.21500
C2890       C  0.60655244  0.27587577  0.58983563    -0.09500
C2891       C  0.58160936  0.27834687  0.57678650     0.29300
C2892       C  0.57152095  0.30304306  0.56935434    -0.21500
C2893       C  0.58609608  0.32549060  0.57525577    -0.09500
C2894       C  0.61027132  0.32284451  0.59078440     0.29300
F2895       F  0.62478703  0.34375744  0.59841178    -0.20100
H2896       H  0.63965691  0.29728867  0.60740825     0.17700
H2897       H  0.55271372  0.30452770  0.55772555     0.17700
F2898       F  0.56774404  0.25705837  0.56901027    -0.20000
C2899       C  0.47063079  0.34491313  0.55640338    -0.21500
C2900       C  0.47306817  0.37190461  0.55749678    -0.09500
C2901       C  0.45127090  0.38748851  0.56082288     0.29300
C2902       C  0.42731649  0.37617425  0.56305418    -0.21500
C2903       C  0.42471723  0.34912456  0.56285774    -0.09500
C2904       C  0.44665019  0.33349052  0.55961998     0.29300
F2905       F  0.44493938  0.30730619  0.55921084    -0.20100
H2906       H  0.48734900  0.33271264  0.55333928     0.17700
H2907       H  0.41078263  0.38868097  0.56548728     0.17700
F2908       F  0.47824596  0.34600420  0.00009472    -0.20000
C2909       C  0.64321490  0.61960197  0.77852904    -0.21500
C2910       C  0.62228803  0.60307669  0.78332344    -0.09500
C2911       C  0.61582334  0.59584352  0.81767930     0.29300
C2912       C  0.62805584  0.60721028  0.84644042    -0.21500
C2913       C  0.64659127  0.62641250  0.84160692    -0.09500
C2914       C  0.65503128  0.63151025  0.80734174     0.29300
F2915       F  0.67242254  0.65036843  0.80148385    -0.20100
H2916       H  0.64832824  0.62579998  0.75239907     0.17700
H2917       H  0.62074433  0.60339166  0.87240908     0.17700
F2918       F  0.59536330  0.58044627  0.82344288    -0.20000
C2919       C  0.49658877  0.60795766  0.81431607    -0.21500
C2920       C  0.49720865  0.58566855  0.79333273    -0.09500
C2921       C  0.47652938  0.56851839  0.79470452     0.29300
C2922       C  0.45698735  0.57240243  0.81908898    -0.21500
C2923       C  0.45728867  0.59389221  0.84152145    -0.09500
C2924       C  0.47666269  0.61223814  0.83780703     0.29300
F2925       F  0.47786301  0.63278159  0.85975035    -0.20100
H2926       H  0.51167856  0.62212930  0.81264473     0.17700
H2927       H  0.44271078  0.55753028  0.82247712     0.17700
F2928       F  0.47592731  0.54731797  0.77392258    -0.20000
C2929       C  0.54337989  0.57459850  0.56785545    -0.21500
C2930       C  0.54469359  0.59776969  0.58708683    -0.09500
C2931       C  0.52819435  0.61815511  0.57815851     0.29300
C2932       C  0.50844956  0.61410824  0.55417251    -0.21500
C2933       C  0.50534504  0.58993830  0.53785783    -0.09500
C2934       C  0.52401963  0.57075241  0.54313198     0.29300
F2935       F  0.52505764  0.55031624  0.02566276    -0.20100
H2936       H  0.55565013  0.55841391  0.57480778     0.17700
H2937       H  0.49509937  0.62975347  0.54901945     0.17700
F2938       F  0.52915826  0.64083676  0.59584364    -0.20000
C2939       C  0.54498593  0.51336362  0.63548004    -0.21500
C2940       C  0.56792543  0.52092497  0.65159340    -0.09500
C2941       C  0.59101243  0.51200616  0.63705131     0.29300
C2942       C  0.59102844  0.49531055  0.60813673    -0.21500
C2943       C  0.56811691  0.48767176  0.59199052    -0.09500
C2944       C  0.54501479  0.49719274  0.60593998     0.29300
F2945       F  0.52232034  0.48978807  0.59222737    -0.20100
H2946       H  0.52693453  0.52075897  0.64502621     0.17700
H2947       H  0.60907505  0.48774580  0.59880839     0.17700
F2948       F  0.61366203  0.51943863  0.65089566    -0.20000
C2949       C  0.84880674  0.63373705  0.69726280    -0.21500
C2950       C  0.85338020  0.62361833  0.66374651    -0.09500
C2951       C  0.86793786  0.60069578  0.66129474     0.29300
C2952       C  0.88010258  0.59013579  0.69112490    -0.21500
C2953       C  0.87750720  0.60186248  0.72408619    -0.09500
C2954       C  0.86051873  0.62292488  0.72709248     0.29300
F2955       F  0.85797317  0.63523376  0.75819731    -0.20100
H2956       H  0.83829512  0.65172933  0.69992858     0.17700
H2957       H  0.89359674  0.57439295  0.68780050     0.17700
F2958       F  0.87301227  0.59038541  0.62948785    -0.20000
C2959       C  0.02403155  0.56706342  0.70716666    -0.21500
C2960       C  0.00204273  0.58269020  0.70782479    -0.09500
C2961       C  0.00051766  0.60430523  0.68523305     0.29300
C2962       C  0.01985438  0.60909889  0.66118101    -0.21500
C2963       C  0.04070183  0.59223438  0.65857827    -0.09500
C2964       C  0.04307493  0.57156059  0.68237650     0.29300
F2965       F  0.06270847  0.55445794  0.67952784    -0.20100
H2966       H  0.02604613  0.55085146  0.72502302     0.17700
H2967       H  0.01726387  0.62454653  0.64220616     0.17700
F2968       F  0.98025446  0.62077959  0.68604574    -0.20000
C2969       C  0.96479004  0.56684994  0.93413221    -0.21500
C2970       C  0.96287682  0.58950590  0.91373205    -0.09500
C2971       C  0.98086745  0.60911732  0.91847117     0.29300
C2972       C  0.00166448  0.60509013  0.94079088    -0.21500
C2973       C  0.00460958  0.58163810  0.95927315    -0.09500
C2974       C  0.98539444  0.56293580  0.95683638     0.29300
F2975       F  0.98728381  0.54029074  0.97478692    -0.20100
H2976       H  0.95163230  0.55107753  0.92983987     0.17700
H2977       H  0.01563264  0.62032000  0.94340089     0.17700
F2978       F  0.97993577  0.63088785  0.89849710    -0.20000
C2979       C  0.84580395  0.36319650  0.55931123    -0.21500
C2980       C  0.85659389  0.36601360  0.59296482    -0.09500
C2981       C  0.87866192  0.38131602  0.59587893     0.29300
C2982       C  0.89102860  0.39080657  0.56568671    -0.21500
C2983       C  0.88139168  0.38599251  0.53190027    -0.09500
C2984       C  0.85792795  0.37308248  0.52922760     0.29300
F2985       F  0.84823161  0.36737033  0.49725665    -0.20100
H2986       H  0.82913721  0.35117075  0.55593154     0.17700
H2987       H  0.90939211  0.40006076  0.56857617     0.17700
F2988       F  0.89019168  0.38422377  0.62740192    -0.20000
C2989       C  0.01746209  0.42354983  0.54238033    -0.21500
C2990       C  0.00110712  0.40248842  0.53828485    -0.09500
C2991       C  0.00596885  0.37937561  0.55687570     0.29300
C2992       C  0.02560611  0.37824079  0.58141698    -0.21500
C2993       C  0.04023805  0.40018463  0.58793103    -0.09500
C2994       C  0.03687856  0.42249275  0.56718258     0.29300
F2995       F  0.05074198  0.44410056  0.57347857    -0.20100
H2996       H  0.01461077  0.44111999  0.52728402     0.17700
H2997       H  0.02768425  0.36112871  0.59768164     0.17700
F2998       F  0.99164719  0.35795330  0.55154122    -0.20000
C2999       C  0.95418741  0.42280097  0.81253316    -0.21500
C3000       C  0.95606750  0.40102034  0.83457790    -0.09500
C3001       C  0.97722922  0.38450793  0.83120807     0.29300
C3002       C  0.99756783  0.39145918  0.80969921    -0.21500
C3003       C  0.99674569  0.41444133  0.78985836    -0.09500
C3004       C  0.97417676  0.42929664  0.78993195     0.29300
F3005       F  0.97201342  0.45083833  0.76970167    -0.20100
H3006       H  0.93839173  0.43623320  0.81546745     0.17700
H3007       H  0.01410367  0.37881392  0.80873212     0.17700
F3008       F  0.97976684  0.36347252  0.85236222    -0.20000
C3009       C  0.88257806  0.31447656  0.92231124    -0.21500
C3010       C  0.90888253  0.31568312  0.92830949    -0.09500
C3011       C  0.92343071  0.29264963  0.92759793     0.29300
C3012       C  0.91144353  0.26889432  0.92141331    -0.21500
C3013       C  0.88488654  0.26786289  0.91639227    -0.09500
C3014       C  0.87067328  0.29106819  0.91683107     0.29300
F3015       F  0.84497108  0.29141986  0.91290480    -0.20100
H3016       H  0.87076315  0.33173482  0.92289525     0.17700
H3017       H  0.92279468  0.25131787  0.92142140     0.17700
F3018       F  0.94898357  0.29296732  0.93336381    -0.20000
C3019       C  0.90907971  0.48513320  0.88713065    -0.21500
C3020       C  0.93167155  0.47693512  0.90398721    -0.09500
C3021       C  0.95502085  0.48670029  0.89139894     0.29300
C3022       C  0.95558673  0.50397404  0.86285350    -0.21500
C3023       C  0.93296202  0.51240527  0.84638928    -0.09500
C3024       C  0.90963141  0.50291141  0.85920545     0.29300
F3025       F  0.88726282  0.51104846  0.84485439    -0.20100
H3026       H  0.89086661  0.47745442  0.89536584     0.17700
H3027       H  0.97377746  0.51169795  0.85459736     0.17700
F3028       F  0.97747202  0.47878221  0.90571511    -0.20000
C3029       C  0.04160258  0.36828200  0.91007556    -0.21500
C3030       C  0.02385976  0.35665514  0.93251948    -0.09500
C3031       C  0.03052102  0.33317194  0.94937724     0.29300
C3032       C  0.05482760  0.32227755  0.94479532    -0.21500
C3033       C  0.07286543  0.33486786  0.92396913    -0.09500
C3034       C  0.06594225  0.35768877  0.90613811     0.29300
F3035       F  0.08297863  0.37003243  0.88535169    -0.20100
H3036       H  0.03705548  0.38624118  0.89668352     0.17700
H3037       H  0.05994352  0.30471034  0.95875030     0.17700
F3038       F  0.01015199  0.31266205  0.44768184    -0.20000
C3039       C  0.05825565  0.66455486  0.79342948    -0.21500
C3040       C  0.07601160  0.65401734  0.81702668    -0.09500
C3041       C  0.06907044  0.63245517  0.83731650     0.29300
C3042       C  0.04489935  0.62140597  0.83366102    -0.21500
C3043       C  0.02723810  0.63132144  0.80923019    -0.09500
C3044       C  0.03421466  0.65318375  0.78914094     0.29300
F3045       F  0.01793898  0.66357001  0.76518689    -0.20100
H3046       H  0.06323354  0.68127447  0.77774911     0.17700
H3047       H  0.04020999  0.60472585  0.84958104     0.17700
F3048       F  0.08553692  0.62236357  0.86123155    -0.20000
C3049       C  0.14737084  0.62183925  0.97443481    -0.21500
C3050       C  0.12890753  0.60246889  0.97045596    -0.09500
C3051       C  0.12376612  0.59322819  0.93664524     0.29300
C3052       C  0.13492815  0.60499248  0.90729175    -0.21500
C3053       C  0.15087407  0.62652535  0.91114666    -0.09500
C3054       C  0.15815902  0.63391601  0.94506057     0.29300
F3055       F  0.17315280  0.65494343  0.94972731    -0.20100
H3056       H  0.15108948  0.62980212  0.00009634     0.17700
H3057       H  0.12866084  0.59930072  0.88145356     0.17700
F3058       F  0.10540089  0.57520912  0.93173705    -0.20000
C3059       C  0.09574077  0.81213111  0.84118741    -0.21500
C3060       C  0.09721577  0.82485080  0.80884896    -0.09500
C3061       C  0.11018524  0.81256156  0.78108377     0.29300
C3062       C  0.12109656  0.78800990  0.78561124    -0.21500
C3063       C  0.11906475  0.77491981  0.81766965    -0.09500
C3064       C  0.10634100  0.78736736  0.84559633     0.29300
F3065       F  0.10431183  0.77580861  0.87739845    -0.20100
H3066       H  0.08578671  0.82107993  0.86282753     0.17700
H3067       H  0.13096445  0.77913652  0.76383229     0.17700
F3068       F  0.11251164  0.82435707  0.74946114    -0.20000
C3069       C  0.34606733  0.62919490  0.56424601    -0.21500
C3070       C  0.35700163  0.62634814  0.59768925    -0.09500
C3071       C  0.37778800  0.60919403  0.60158025     0.29300
C3072       C  0.38927586  0.59787294  0.57213988    -0.21500
C3073       C  0.37994804  0.60288080  0.53826631    -0.09500
C3074       C  0.35714822  0.61720816  0.53487927     0.29300
F3075       F  0.35137254  0.63369511  0.99795708    -0.20100
H3076       H  0.33047754  0.64274939  0.56029809     0.17700
H3077       H  0.40707282  0.58738041  0.57550201     0.17700
F3078       F  0.38917371  0.60623955  0.63327838    -0.20000
C3079       C  0.44395278  0.65865845  0.65774461    -0.21500
C3080       C  0.42851331  0.66333830  0.68692395    -0.09500
C3081       C  0.43717183  0.65679162  0.72047250     0.29300
C3082       C  0.46110713  0.64532448  0.72470626    -0.21500
C3083       C  0.47624816  0.63962374  0.69539111    -0.09500
C3084       C  0.46761944  0.64655719  0.66183812     0.29300
F3085       F  0.48194725  0.64153162  0.63313178    -0.20100
H3086       H  0.43720507  0.66346163  0.63169077     0.17700
H3087       H  0.46740400  0.63999873  0.75079014     0.17700
F3088       F  0.42235029  0.66120911  0.74892985    -0.20000
C3089       C  0.26235493  0.70255207  0.74141935    -0.21500
C3090       C  0.26907774  0.67964764  0.72378936    -0.09500
C3091       C  0.25903701  0.65618903  0.73623984     0.29300
C3092       C  0.24219232  0.65584793  0.76483847    -0.21500
C3093       C  0.23551110  0.67875034  0.78269812    -0.09500
C3094       C  0.24607211  0.70216496  0.77062674     0.29300
F3095       F  0.23983721  0.72492560  0.78603961    -0.20100
H3096       H  0.27056827  0.72080828  0.73339039     0.17700
H3097       H  0.23391322  0.63758098  0.77267922     0.17700
F3098       F  0.26547960  0.63355283  0.72062210    -0.20000
C3099       C  0.40584226  0.78202090  0.67230166    -0.21500
C3100       C  0.38071865  0.77772679  0.68353620    -0.09500
C3101       C  0.36619645  0.79853076  0.69630766     0.29300
C3102       C  0.37665807  0.82322586  0.69756532    -0.21500
C3103       C  0.40192392  0.82746689  0.68703056    -0.09500
C3104       C  0.41654936  0.80664780  0.67447769     0.29300
F3105       F  0.44092805  0.81022718  0.66367031    -0.20100
H3106       H  0.41718810  0.76625473  0.66191770     0.17700
H3107       H  0.36510343  0.83900040  0.70739580     0.17700
F3108       F  0.34160339  0.79520701  0.70634865    -0.20000
C3109       C  0.03297828  0.87786028  0.58483410    -0.21500
C3110       C  0.01816013  0.87230703  0.55525804    -0.09500
C3111       C  0.02952338  0.85788174  0.52787979     0.29300
C3112       C  0.05466262  0.84858859  0.53087688    -0.21500
C3113       C  0.06886472  0.85314465  0.56125569    -0.09500
C3114       C  0.05790493  0.86829858  0.58794947     0.29300
F3115       F  0.07127902  0.87366629  0.61743015    -0.20100
H3116       H  0.02512245  0.88925026  0.60598670     0.17700
H3117       H  0.06261983  0.83689353  0.51009892     0.17700
F3118       F  0.01637437  0.85242884  0.49825232    -0.20000
C3119       C  0.13488840  0.88074401  0.72075047    -0.21500
C3120       C  0.11487699  0.89832181  0.71423948    -0.09500
C3121       C  0.11028386  0.90601161  0.67930377     0.29300
C3122       C  0.12295572  0.89371204  0.65151037    -0.21500
C3123       C  0.13991084  0.87308371  0.65798903    -0.09500
C3124       C  0.14710408  0.86801199  0.69297854     0.29300
F3125       F  0.16379298  0.84856908  0.70046088    -0.20100
H3126       H  0.13884429  0.87434292  0.74724062     0.17700
H3127       H  0.11704859  0.89811712  0.62497228     0.17700
F3128       F  0.09145936  0.92333302  0.67185738    -0.20000
C3129       C  0.13919365  0.73623718  0.68408729    -0.21500
C3130       C  0.16199317  0.74441474  0.66754762    -0.09500
C3131       C  0.18406730  0.72933811  0.67208992     0.29300
C3132       C  0.18373914  0.70841353  0.69564166    -0.21500
C3133       C  0.16124331  0.70192701  0.71398541    -0.09500
C3134       C  0.13861791  0.71475449  0.70583633     0.29300
F3135       F  0.11668271  0.70905217  0.72301873    -0.20100
H3136       H  0.12131742  0.74650798  0.68041999     0.17700
H3137       H  0.20158835  0.69886216  0.70221440     0.17700
F3138       F  0.20606969  0.73557387  0.65555556    -0.20000
C3139       C  0.17381009  0.79539828  0.93955240    -0.21500
C3140       C  0.15260902  0.79446949  0.96200704    -0.09500
C3141       C  0.13615937  0.77323535  0.95997767     0.29300
C3142       C  0.14202339  0.75241579  0.93818229    -0.21500
C3143       C  0.16411382  0.75255027  0.91731787    -0.09500
C3144       C  0.17947089  0.77476418  0.91721326     0.29300
F3145       F  0.20068937  0.77597319  0.89700627    -0.20100
H3146       H  0.18737606  0.81104265  0.94181282     0.17700
H3147       H  0.12922966  0.73604577  0.93779962     0.17700
F3148       F  0.11607922  0.77122797  0.98217945    -0.20000
C3149       C  0.09925694  0.68271686  0.59155570    -0.21500
C3150       C  0.08004489  0.67913480  0.56675714    -0.09500
C3151       C  0.06788040  0.70115385  0.55201551     0.29300
C3152       C  0.07616081  0.72621145  0.56055000    -0.21500
C3153       C  0.09658634  0.72952072  0.58378430    -0.09500
C3154       C  0.10749125  0.70742093  0.59988912     0.29300
F3155       F  0.12761159  0.70948220  0.62194445    -0.20100
H3156       H  0.10868308  0.66624948  0.60368032     0.17700
H3157       H  0.06789581  0.74277514  0.54718124     0.17700
F3158       F  0.04925581  0.69848691  0.52762139    -0.20000
C3159       C  0.44680520  0.83414138  0.94607636    -0.21500
C3160       C  0.42609374  0.84923806  0.93449034    -0.09500
C3161       C  0.43028657  0.87507117  0.92433178     0.29300
C3162       C  0.45464531  0.88572024  0.92671459    -0.21500
C3163       C  0.47510750  0.87097348  0.93980510    -0.09500
C3164       C  0.47107861  0.84495262  0.94911682     0.29300
F3165       F  0.49062210  0.82996208  0.96104485    -0.20100
H3166       H  0.44408038  0.81408668  0.95341788     0.17700
H3167       H  0.45733571  0.90577873  0.91936082     0.17700
F3168       F  0.41094314  0.88992424  0.91154508    -0.20000
C3169       C  0.36514809  0.89819167  0.84457774    -0.21500
C3170       C  0.35059819  0.87549516  0.84164204    -0.09500
C3171       C  0.34515261  0.86624526  0.80789075     0.29300
C3172       C  0.35589858  0.87797214  0.77824866    -0.21500
C3173       C  0.37282176  0.89879584  0.78146930    -0.09500
C3174       C  0.37633290  0.90966093  0.81481499     0.29300
F3175       F  0.39307449  0.92931047  0.81913945    -0.20100
H3176       H  0.37034611  0.90525626  0.87022299     0.17700
H3177       H  0.35340607  0.86879443  0.75309783     0.17700
F3178       F  0.33228278  0.84373484  0.80391292    -0.20000
C3179       C  0.35863651  0.74960706  0.81645854    -0.21500
C3180       C  0.33665902  0.74992474  0.83760005    -0.09500
C3181       C  0.32017278  0.72858709  0.83649552     0.29300
C3182       C  0.32420429  0.70892983  0.81196112    -0.21500
C3183       C  0.34515786  0.70975848  0.78905769    -0.09500
C3184       C  0.36303387  0.72958843  0.79276457     0.29300
F3185       F  0.38315484  0.73123812  0.77056715    -0.20100
H3186       H  0.37236080  0.76514740  0.81787992     0.17700
H3187       H  0.30976338  0.69421283  0.80874373     0.17700
F3188       F  0.29940028  0.72746868  0.85754849    -0.20000
C3189       C  0.31908106  0.79592413  0.56097598    -0.21500
C3190       C  0.33944806  0.79542386  0.53716298    -0.09500
C3191       C  0.35737372  0.77523702  0.53928814     0.29300
C3192       C  0.35363322  0.75470087  0.56253511    -0.21500
C3193       C  0.33233349  0.75425617  0.58485659    -0.09500
C3194       C  0.31575888  0.77577444  0.58509703     0.29300
F3195       F  0.29564799  0.77673504  0.60735491    -0.20100
H3196       H  0.30456949  0.81087808  0.55892472     0.17700
H3197       H  0.36742351  0.73901017  0.56291337     0.17700
F3198       F  0.30751446  0.81896285  0.06028368    -0.20000
C3199       C  0.25461699  0.84495826  0.49097238    -0.21500
C3200       C  0.26625700  0.82452685  0.97404959    -0.09500
C3201       C  0.25939883  0.80213694  0.99304521     0.29300
C3202       C  0.24117833  0.80322055  0.02014687    -0.21500
C3203       C  0.22145134  0.81994531  0.52109543    -0.09500
C3204       C  0.23525407  0.84305202  0.51675922     0.29300
F3205       F  0.23067330  0.86349255  0.53801010    -0.20100
H3206       H  0.26575093  0.86250612  0.48970336     0.17700
H3207       H  0.23610854  0.78544136  0.03342700     0.17700
F3208       F  0.27110361  0.77920318  0.98640206    -0.20000
C3209       C  0.38028263  0.68269313  0.94140954    -0.21500
C3210       C  0.40698909  0.67996046  0.94084422    -0.09500
C3211       C  0.42213283  0.70230640  0.93826079     0.29300
C3212       C  0.41059133  0.72677076  0.93624747    -0.21500
C3213       C  0.38394975  0.72929980  0.93772499    -0.09500
C3214       C  0.36886039  0.70708597  0.94006866     0.29300
F3215       F  0.34301364  0.70892409  0.93948002    -0.20100
H3216       H  0.36811288  0.66589720  0.94327784     0.17700
H3217       H  0.42242155  0.74377267  0.93358618     0.17700
F3218       F  0.44796478  0.70054709  0.93722098    -0.20000
C3219       C  0.56417533  0.87296418  0.67326323    -0.21500
C3220       C  0.56867136  0.84754010  0.68477588    -0.09500
C3221       C  0.54820166  0.83285693  0.69752983     0.29300
C3222       C  0.52385282  0.84395819  0.69995575    -0.21500
C3223       C  0.51941863  0.86949564  0.68855132    -0.09500
C3224       C  0.53975654  0.88376526  0.67456516     0.29300
F3225       F  0.53633485  0.90855295  0.66356984    -0.20100
H3226       H  0.57960548  0.88446539  0.66293021     0.17700
H3227       H  0.50846651  0.83265457  0.71093798     0.17700
F3228       F  0.55190355  0.80814052  0.70864525    -0.20000
C3229       C  0.67360484  0.79645492  0.81022572    -0.21500
C3230       C  0.65174654  0.79689697  0.78880268    -0.09500
C3231       C  0.63330760  0.77766881  0.79333956     0.29300
C3232       C  0.63801340  0.75690667  0.81605976    -0.21500
C3233       C  0.66090415  0.75527076  0.83531890    -0.09500
C3234       C  0.67811536  0.77594608  0.83349083     0.29300
F3235       F  0.70005602  0.77551612  0.85238484    -0.20100
H3236       H  0.68847857  0.81063007  0.80625713     0.17700
H3237       H  0.62382666  0.74184686  0.81821786     0.17700
F3238       F  0.61223382  0.77727703  0.77262955    -0.20000
C3239       C  0.63780662  0.74959564  0.56458046    -0.21500
C3240       C  0.65970435  0.75020091  0.58596217    -0.09500
C3241       C  0.67617372  0.72862180  0.58609926     0.29300
C3242       C  0.67197978  0.70812042  0.56303183    -0.21500
C3243       C  0.65115555  0.70851705  0.53977915    -0.09500
C3244       C  0.63340276  0.72885566  0.54201412     0.29300
F3245       F  0.61624319  0.72210982  0.02012491    -0.20100
H3246       H  0.62411933  0.76537168  0.56505533     0.17700
H3247       H  0.68641797  0.69311957  0.56085166     0.17700
F3248       F  0.69710780  0.72798123  0.60703308    -0.20000
C3249       C  0.63843323  0.88711268  0.53329998    -0.21500
C3250       C  0.61615578  0.90204639  0.53771218    -0.09500
C3251       C  0.60823594  0.90774422  0.57195106     0.29300
C3252       C  0.62080547  0.89661862  0.60083918    -0.21500
C3253       C  0.64096238  0.87892102  0.59623590    -0.09500
C3254       C  0.65060188  0.87539792  0.56224601     0.29300
F3255       F  0.66973892  0.85812918  0.55662301    -0.20100
H3256       H  0.64459590  0.88194840  0.50722236     0.17700
H3257       H  0.61274540  0.89933141  0.62659555     0.17700
F3258       F  0.58637144  0.92135644  0.57728969    -0.20000
C3259       C  0.62444160  0.71098630  0.70834241    -0.21500
C3260       C  0.61177990  0.73012199  0.68868797    -0.09500
C3261       C  0.58777490  0.72459739  0.67387786     0.29300
C3262       C  0.57701714  0.70012563  0.67824944    -0.21500
C3263       C  0.59035757  0.68077967  0.69651055    -0.09500
C3264       C  0.61396943  0.68644345  0.71193731     0.29300
F3265       F  0.62680096  0.66827542  0.73079999    -0.20100
H3266       H  0.64289972  0.71472856  0.71999871     0.17700
H3267       H  0.55865371  0.69602962  0.66653494     0.17700
F3268       F  0.57480616  0.74270780  0.65501615    -0.20000
C3269       C  0.94786983  0.81631683  0.81525301    -0.21500
C3270       C  0.92587823  0.82948217  0.80284250    -0.09500
C3271       C  0.92913576  0.85071677  0.78036387     0.29300
C3272       C  0.95347103  0.85977852  0.77297935    -0.21500
C3273       C  0.97544771  0.84805894  0.78741119    -0.09500
C3274       C  0.97254044  0.82555523  0.80765525     0.29300
F3275       F  0.99318410  0.81384078  0.82234446    -0.20100
H3276       H  0.94596116  0.79967806  0.83232582     0.17700
H3277       H  0.95497740  0.87729726  0.75760043     0.17700
F3278       F  0.90878107  0.86354938  0.76652681    -0.20000
C3279       C  0.84097814  0.86453947  0.93651170    -0.21500
C3280       C  0.85311335  0.86880809  0.90424200    -0.09500
C3281       C  0.87359260  0.88620676  0.90299547     0.29300
C3282       C  0.88321216  0.89710655  0.93381872    -0.21500
C3283       C  0.87269460  0.89084795  0.96652746    -0.09500
C3284       C  0.85064914  0.87546933  0.96745066     0.29300
F3285       F  0.84051495  0.86829775  0.99862630    -0.20100
H3286       H  0.82578121  0.85049736  0.93834371     0.17700
H3287       H  0.90068865  0.90815073  0.93251392     0.17700
F3288       F  0.88651723  0.88980589  0.87263998    -0.20000
C3289       C  0.81568180  0.78491393  0.69361001    -0.21500
C3290       C  0.83875234  0.78855361  0.71178732    -0.09500
C3291       C  0.85976596  0.77276549  0.70426659     0.29300
C3292       C  0.85685733  0.75177255  0.68195615    -0.21500
C3293       C  0.83313792  0.74669338  0.66629041    -0.09500
C3294       C  0.81282788  0.76406180  0.67099013     0.29300
F3295       F  0.78986506  0.75990605  0.65558286    -0.20100
H3296       H  0.79905856  0.79654634  0.69994669     0.17700
H3297       H  0.87312940  0.73925170  0.67722403     0.17700
F3298       F  0.88205273  0.77561177  0.72195082    -0.20000
C3299       C  0.85715912  0.74513521  0.93695439    -0.21500
C3300       C  0.83510402  0.74366294  0.91604452    -0.09500
C3301       C  0.82167941  0.72017631  0.91501696     0.29300
C3302       C  0.82897610  0.69958546  0.93673818    -0.21500
C3303       C  0.84971577  0.70198245  0.95979221    -0.09500
C3304       C  0.86462235  0.72438883  0.95820449     0.29300
F3305       F  0.87844087  0.71879912  0.48268570    -0.20100
H3306       H  0.86866708  0.76246418  0.93703287     0.17700
H3307       H  0.81668268  0.68284685  0.93845741     0.17700
F3308       F  0.80078074  0.71751882  0.89435351    -0.20000
C3309       C  0.73498587  0.84398649  0.74397417    -0.21500
C3310       C  0.72847800  0.82233319  0.72347272    -0.09500
C3311       C  0.74004572  0.79841825  0.73219688     0.29300
C3312       C  0.75736521  0.79638836  0.76033789    -0.21500
C3313       C  0.76422234  0.81812269  0.78028361    -0.09500
C3314       C  0.75293140  0.84206267  0.77144232     0.29300
F3315       F  0.75928507  0.86366238  0.78942850    -0.20100
H3316       H  0.72598577  0.86252876  0.73884614     0.17700
H3317       H  0.76635659  0.77784827  0.76556075     0.17700
F3318       F  0.73404460  0.77667788  0.71428548    -0.20000
C3319       C  0.89339968  0.70852322  0.84719583    -0.21500
C3320       C  0.88198234  0.72042300  0.81777089    -0.09500
C3321       C  0.88502800  0.70909568  0.78469906     0.29300
C3322       C  0.89913966  0.68620601  0.78139901    -0.21500
C3323       C  0.91013953  0.67439692  0.81095236    -0.09500
C3324       C  0.90721311  0.68558783  0.84386439     0.29300
F3325       F  0.91736114  0.67410273  0.87275568    -0.20100
H3326       H  0.89124079  0.71672486  0.87305684     0.17700
H3327       H  0.90094368  0.67728505  0.75592142     0.17700
F3328       F  0.87456015  0.72010562  0.75571608    -0.20000
loop_ 
_geom_bond_atom_site_label_1 
_geom_bond_atom_site_label_2 
_geom_bond_distance 
_geom_bond_site_symmetry_2 
_ccdc_geom_bond_type 
O1          Cr19   2.005       .  S
O1            C9   1.263       .  A
O2          Cr19   1.985       .  S
O2            C3   1.269       .  A
C3            O4   1.267       .  A
C3         C1649   1.493       .  S
O4          Cr20   2.013       .  S
O5          Cr20   2.017       .  S
O5            C6   1.273       .  A
C6            O7   1.268       .  A
C6         C1616   1.490       .  S
O7          Cr21   2.008       .  S
O8          Cr21   1.961       .  S
O8            C9   1.259       .  A
C9         C1636   1.476       .  S
O10         Cr19   1.973       .  S
O10          C18   1.259       .  A
O11         Cr19   1.974       .  S
O11          C12   1.254       .  A
C12          O13   1.267       .  A
C12        C1626   1.459       .  S
O13         Cr20   2.013       .  S
O14         Cr20   1.998       .  S
O14          C15   1.263       .  A
C15          O16   1.254       .  A
C15        C1606   1.484       .  S
O16         Cr21   1.978       .  S
O17         Cr21   1.994       .  S
O17          C18   1.261       .  A
C18        C1656   1.465       .  S
Cr19         O22   1.787       .  S
Cr20         O22   1.777       .  S
Cr21         O22   1.777       .  S
O23         Cr41   2.016       .  S
O23          C31   1.265       .  A
O24         Cr41   1.985       .  S
O24          C25   1.270       .  A
C25          O26   1.266       .  A
C25        C1646   1.498       .  S
O26         Cr42   2.009       .  S
O27         Cr42   2.014       .  S
O27          C28   1.274       .  A
C28          O29   1.269       .  A
C28        C1589   1.489       .  S
O29         Cr43   2.007       .  S
O30         Cr43   1.961       .  S
O30          C31   1.258       .  A
C31        C1576   1.481       .  S
O32         Cr41   1.974       .  S
O32          C40   1.258       .  A
O33         Cr41   1.971       .  S
O33          C34   1.255       .  A
C34          O35   1.270       .  A
C34        C1566   1.461       .  S
O35         Cr42   2.017       .  S
O36         Cr42   2.003       .  S
O36          C37   1.260       .  A
C37          O38   1.253       .  A
C37        C1556   1.474       .  S
O38         Cr43   1.972       .  S
O39         Cr43   1.992       .  S
O39          C40   1.261       .  A
C40        C1596   1.468       .  S
Cr41         O44   1.788       .  S
Cr42         O44   1.783       .  S
Cr43         O44   1.772       .  S
O45         Cr63   1.959       .  S
O45          C53   1.258       .  A
O46         Cr63   1.998       .  S
O46          C47   1.267       .  A
C47          O48   1.278       .  A
C47        C1506   1.490       .  S
O48         Cr64   2.026       .  S
O49         Cr64   2.030       .  S
O49          C50   1.268       .  A
C50          O51   1.271       .  A
C50        C1536   1.516       .  S
O51         Cr65   1.997       .  S
O52         Cr65   2.006       .  S
O52          C53   1.265       .  A
C53        C1516   1.479       .  S
O54         Cr63   1.985       .  S
O54          C62   1.259       .  A
O55         Cr63   1.977       .  S
O55          C56   1.254       .  A
C56          O57   1.261       .  A
C56        C1496   1.483       .  S
O57         Cr64   2.010       .  S
O58       Cr1728   2.016       .  S
O58          C59   1.270   1_556  A
C59        O1724   1.255   1_554  A
C59        C1526   1.459       .  S
O60         Cr65   1.973       .  S
O60        C1723   1.256       .  A
O61         Cr65   1.988       .  S
O61          C62   1.262       .  A
C62        C1549   1.476       .  S
Cr63         O66   1.775       .  S
Cr64       O1722   2.015       .  S
Cr64         O66   1.785       .  S
Cr65         O66   1.790       .  S
O67         Cr85   1.957       .  S
O67          C75   1.257       .  A
O68         Cr85   1.996       .  S
O68          C69   1.267       .  A
C69          O70   1.279       .  A
C69        C1459   1.489       .  S
O70         Cr86   2.026       .  S
O71         Cr86   2.029       .  S
O71          C72   1.268       .  A
C72          O73   1.271       .  A
C72        C1539   1.512       .  S
O73         Cr87   1.993       .  S
O74         Cr87   2.003       .  S
O74          C75   1.263       .  A
C75        C1466   1.478       .  S
O76         Cr85   1.985       .  S
O76          C84   1.260       .  A
O77         Cr85   1.981       .  S
O77          C78   1.254       .  A
C78          O79   1.261       .  A
C78        C1449   1.486       .  S
O79         Cr86   2.013       .  S
O80         Cr86   2.024       .  S
O80        C1745   1.273   1_554  A
C81        O1744   1.267       .  A
C81        O1746   1.254       .  A
C81        C1476   1.454       .  S
O82         Cr87   1.967       .  S
O82        C1745   1.255   1_554  A
O83         Cr87   1.980       .  S
O83          C84   1.260       .  A
C84        C1489   1.470       .  S
Cr85         O88   1.776       .  S
Cr86         O88   1.784       .  S
Cr87         O88   1.795       .  S
O89        Cr107   2.011       .  S
O89          C97   1.264       .  A
O90        Cr107   1.993       .  S
O90          C91   1.272       .  A
C91          O92   1.267       .  A
C91        C1426   1.498       .  S
O92        Cr108   2.009       .  S
O93        Cr108   2.018       .  S
O93          C94   1.274       .  A
C94          O95   1.266       .  A
C94        C1406   1.484       .  S
O95        Cr109   1.993       .  S
O96        Cr109   1.959       .  S
O96          C97   1.257       .  A
C97        C1529   1.481       .  S
O98        Cr107   1.983       .  S
O98         C106   1.261       .  A
O99        Cr107   1.966       .  S
O99         C100   1.253       .  A
C100        O101   1.270       .  A
C100       C1519   1.461       .  S
O101       Cr108   2.021       .  S
O102       Cr108   1.999       .  S
O102        C103   1.258       .  A
C103        O104   1.253       .  A
C103       C1416   1.459       .  S
O104       Cr109   1.972       .  S
O105       Cr109   1.986       .  S
O105        C106   1.261       .  A
C106       C1436   1.475       .  S
Cr107       O110   1.790       .  S
Cr108       O110   1.781       .  S
Cr109       O110   1.772       .  S
O111       Cr129   2.005       .  S
O111        C119   1.261       .  A
O112       Cr129   1.981       .  S
O112        C113   1.267       .  A
C113        O114   1.267       .  A
C113       C1429   1.494       .  S
O114       Cr130   2.016       .  S
O115       Cr130   2.031       .  S
O115        C116   1.276       .  A
C116        O117   1.262       .  A
C116       C1389   1.488       .  S
O117       Cr131   1.990       .  S
O118       Cr131   1.953       .  S
O118        C119   1.255       .  A
C119       C1479   1.465       .  S
O120       Cr129   1.980       .  S
O120        C128   1.260       .  A
O121       Cr129   1.964       .  S
O121        C122   1.256       .  A
C122        O123   1.271       .  A
C122       C1469   1.461       .  S
O123       Cr130   2.018       .  S
O124       Cr130   2.007       .  S
O124        C125   1.264       .  A
C125        O126   1.259       .  A
C125       C1376   1.470       .  S
O126       Cr131   1.982       .  S
O127       Cr131   2.003       .  S
O127        C128   1.261       .  A
C128       C1399   1.480       .  S
Cr129       O132   1.785       .  S
Cr130       O132   1.775       .  S
Cr131       O132   1.768       .  S
O133      Cr1815   1.951   1_554  S
O133        C141   1.255       .  A
O134      Cr1815   2.002   1_554  S
O134        C135   1.266       .  A
C135       O1800   1.276   1_554  A
C135       C1319   1.495       .  S
O136       Cr152   2.028       .  S
O136       C1799   1.276       .  A
O137       Cr152   1.998       .  S
O137        C138   1.262       .  A
C138        O139   1.268       .  A
C138       C1356   1.503       .  S
O139       Cr153   1.988       .  S
O140       Cr153   1.984       .  S
O140       C1805   1.262       .  A
C141       O1804   1.263   1_554  A
C141       C1326   1.462   1_655  S
O142       Cr151   1.992       .  S
O142        C150   1.258       .  A
O143       Cr151   1.980       .  S
O143        C144   1.254       .  A
C144        O145   1.260       .  A
C144       C1346   1.477       .  S
O145       Cr152   1.988       .  S
O146       Cr152   2.021       .  S
O146        C147   1.272       .  A
C147        O148   1.253       .  A
C147       C1336   1.456       .  S
O148       Cr153   1.951       .  S
O149       Cr153   1.981       .  S
O149        C150   1.259       .  A
C150       C1366   1.477   1_655  S
Cr151      O1797   1.956       .  S
Cr151      O1798   2.010       .  S
Cr151       O154   1.782       .  S
Cr152       O154   1.780       .  S
Cr153       O154   1.787       .  S
O155       Cr173   1.962       .  S
O155        C163   1.258       .  A
O156       Cr173   1.997       .  S
O156        C157   1.266       .  A
C157        O158   1.276       .  A
C157       C1289   1.489       .  S
O158       Cr174   2.024       .  S
O159       Cr174   2.007       .  S
O159        C160   1.266       .  A
C160        O161   1.271       .  A
C160       C1359   1.497       .  S
O161       Cr175   1.991       .  S
O162       Cr175   1.996       .  S
O162        C163   1.262       .  A
C163       C1296   1.476   1_655  S
O164       Cr173   1.988       .  S
O164        C172   1.259       .  A
O165       Cr173   1.981       .  S
O165        C166   1.255       .  A
C166        O167   1.258       .  A
C166       C1659   1.475       .  S
O167       Cr174   1.994       .  S
O168       Cr174   2.024       .  S
O168        C169   1.271       .  A
C169        O170   1.251       .  A
C169       C1306   1.460       .  S
O170       Cr175   1.959       .  S
O171       Cr175   1.983       .  S
O171        C172   1.261       .  A
C172       C1379   1.479   1_655  S
Cr173       O176   1.777       .  S
Cr174       O176   1.780       .  S
Cr175       O176   1.790       .  S
O177       Cr195   1.956       .  S
O177        C185   1.256       .  A
O178       Cr195   1.995       .  S
O178        C179   1.265       .  A
C179        O180   1.276       .  A
C179       C1246   1.494       .  S
O180       Cr196   2.026       .  S
O181       Cr196   2.018       .  S
O181        C182   1.269       .  A
C182        O183   1.271       .  A
C182       C1276   1.500       .  S
O183       Cr197   1.986       .  S
O184       Cr197   2.013       .  S
O184        C185   1.263       .  A
C185       C1256   1.478       .  S
O186       Cr195   1.997       .  S
O186        C194   1.262       .  A
O187       Cr195   1.974       .  S
O187        C188   1.255       .  A
C188        O189   1.261       .  A
C188       C1599   1.469       .  S
O189       Cr196   1.997       .  S
O190       Cr196   2.021       .  S
O190        C191   1.269       .  A
C191        O192   1.253       .  A
C191       C1266   1.462       .  S
O192       Cr197   1.965       .  S
O193       Cr197   1.981       .  S
O193        C194   1.260       .  A
C194       C1419   1.480       .  S
Cr195       O198   1.774       .  S
Cr196       O198   1.782       .  S
Cr197       O198   1.791       .  S
O199      Cr1881   1.958       .  S
O199        C207   1.258       .  A
O200      Cr1881   2.006       .  S
O200        C201   1.268       .  A
C201       O1866   1.274       .  A
C201       C1196   1.489       .  S
O202       Cr218   2.018       .  S
O202       C1865   1.274   1_554  A
O203       Cr218   2.015       .  S
O203        C204   1.268       .  A
C204        O205   1.270       .  A
C204       C1279   1.497       .  S
O205       Cr219   1.986       .  S
O206       Cr219   2.005       .  S
O206       C1871   1.263   1_554  A
C207       O1870   1.264       .  A
C207       C1206   1.479       .  S
O208       Cr217   1.985       .  S
O208        C216   1.259       .  A
O209       Cr217   1.971       .  S
O209        C210   1.254       .  A
C210        O211   1.262       .  A
C210       C1229   1.476       .  S
O211       Cr218   1.999       .  S
O212       Cr218   2.018       .  S
O212        C213   1.268       .  A
C213        O214   1.253       .  A
C213       C1216   1.459       .  S
O214       Cr219   1.967       .  S
O215       Cr219   1.977       .  S
O215        C216   1.260       .  A
C216       C1236   1.473       .  S
Cr217      O1863   1.959   1_554  S
Cr217      O1864   1.997   1_554  S
Cr217       O220   1.774       .  S
Cr218       O220   1.778       .  S
Cr219       O220   1.785       .  S
O221       Cr239   1.976       .  S
O221        C229   1.263       .  A
O222       Cr239   2.022       .  S
O222        C223   1.269       .  A
C223        O224   1.274       .  A
C223       C1186   1.505       .  S
O224       Cr240   2.017       .  S
O225       Cr240   2.057       .  S
O225        C226   1.280       .  A
C226        O227   1.258       .  A
C226       C1159   1.487       .  S
O227       Cr241   1.960       .  S
O228       Cr241   1.986       .  S
O228        C229   1.266       .  A
C229       C1179   1.461       .  S
O230       Cr239   1.991       .  S
O230        C238   1.260       .  A
O231       Cr239   1.935       .  S
O231       C1896   1.246       .  A
C232        O233   1.267       .  A
C232       O1895   1.243       .  A
C232       C1166   1.467   1_556  S
O233      Cr1904   2.035       .  S
O234       Cr240   1.989       .  S
O234        C235   1.260       .  A
C235        O236   1.261       .  A
C235       C1149   1.489       .  S
O236       Cr241   2.006       .  S
O237       Cr241   1.991       .  S
O237        C238   1.260       .  A
C238       C1349   1.479       .  S
Cr239       O242   1.766       .  S
Cr240      O1897   2.023       .  S
Cr240       O242   1.781       .  S
Cr241       O242   1.767       .  S
O243       Cr261   2.006       .  S
O243        C251   1.260       .  A
O244       Cr261   2.008       .  S
O244        C245   1.271       .  A
C245        O246   1.266       .  A
C245       C1189   1.506       .  S
O246       Cr262   2.003       .  S
O247       Cr262   2.072       .  S
O247        C248   1.295       .  A
C248        O249   1.275       .  A
C248       C1136   1.491       .  S
O249       Cr263   1.964       .  S
O250       Cr263   1.942       .  S
O250        C251   1.241       .  A
C251       C1126   1.484       .  S
O252       Cr261   2.009       .  S
O252        C260   1.280       .  A
O253       Cr261   1.946       .  S
O253       C1918   1.251       .  A
C254       O1917   1.248       .  A
C254       O1919   1.265       .  A
C254       C1116   1.453       .  S
O255       Cr262   1.997       .  S
O255       C1918   1.263       .  A
O256       Cr262   2.000       .  S
O256        C257   1.248       .  A
C257        O258   1.240       .  A
C257       C1106   1.481       .  S
O258       Cr263   1.972       .  S
O259       Cr263   1.987       .  S
O259        C260   1.279       .  A
C260       C1226   1.480       .  S
Cr261       O264   1.785       .  S
Cr262       O264   1.772       .  S
Cr263       O264   1.771       .  S
O265      Cr1947   1.944   1_554  S
O265        C273   1.253       .  A
O266      Cr1947   1.963   1_554  S
O266        C267   1.259       .  A
C267       O1932   1.282   1_554  A
C267       C1056   1.494       .  S
O268       Cr284   2.058       .  S
O268       C1931   1.282       .  A
O269       Cr284   2.018       .  S
O269        C270   1.270       .  A
C270        O271   1.261       .  A
C270       C1079   1.514       .  S
O271       Cr285   1.980       .  S
O272       Cr285   1.994       .  S
O272       C1937   1.267       .  A
C273       O1936   1.269   1_554  A
C273       C1086   1.478   1_455  S
O274       Cr283   2.034       .  S
O274        C282   1.273   1_455  A
O275       Cr283   1.965       .  S
O275        C276   1.250       .  A
C276        O277   1.260       .  A
C276       C1066   1.486       .  S
O277       Cr284   2.009       .  S
O278       Cr284   2.023       .  S
O278        C279   1.268       .  A
C279        O280   1.255       .  A
C279       C1096   1.461       .  S
O280       Cr285   1.935       .  S
O281       Cr285   1.976   1_655  S
O281        C282   1.257       .  A
C282       C1146   1.484       .  S
Cr283      O1929   1.941       .  S
Cr283      O1930   1.975       .  S
Cr283       O286   1.776       .  S
Cr284       O286   1.803       .  S
Cr285       O286   1.780       .  S
O287       Cr305   1.953       .  S
O287        C295   1.254       .  A
O288       Cr305   1.973       .  S
O288        C289   1.263       .  A
C289        O290   1.282       .  A
C289       C1456   1.495       .  S
O290       Cr306   2.062       .  S
O291       Cr306   2.015       .  S
O291        C292   1.272       .  A
C292        O293   1.265       .  A
C292       C1076   1.509       .  S
O293       Cr307   1.987       .  S
O294       Cr307   2.001       .  S
O294        C295   1.269       .  A
C295       C1036   1.485   1_455  S
O296       Cr305   2.025       .  S
O296        C304   1.271   1_455  A
O297       Cr305   1.968       .  S
O297        C298   1.252       .  A
C298        O299   1.260       .  A
C298       C1396   1.479       .  S
O299       Cr306   2.008       .  S
O300       Cr306   2.022       .  S
O300        C301   1.264       .  A
C301        O302   1.250       .  A
C301       C1046   1.454       .  S
O302       Cr307   1.930       .  S
O303       Cr307   1.959   1_655  S
O303        C304   1.258       .  A
C304       C1609   1.482       .  S
Cr305       O308   1.776       .  S
Cr306       O308   1.801       .  S
Cr307       O308   1.773       .  S
O309       Cr327   1.995       .  S
O309        C317   1.260       .  A
O310       Cr327   1.980       .  S
O310        C311   1.268       .  A
C311        O312   1.266       .  A
C311        C996   1.486       .  S
O312       Cr328   2.007       .  S
O313       Cr328   2.021       .  S
O313        C314   1.271       .  A
C314        O315   1.259       .  A
C314       C1006   1.480       .  S
O315       Cr329   1.978       .  S
O316       Cr329   1.960       .  S
O316        C317   1.256       .  A
C317       C1026   1.459       .  S
O318       Cr327   1.995       .  S
O318        C326   1.264       .  A
O319       Cr327   1.956       .  S
O319       C1984   1.253       .  A
C320        O321   1.272   1_554  A
C320       O1983   1.255   1_554  A
C320       C1016   1.463       .  S
O321      Cr1992   2.011       .  S
O322       Cr328   2.003       .  S
O322        C323   1.266       .  A
C323        O324   1.262       .  A
C323       C1369   1.479       .  S
O324       Cr329   1.986       .  S
O325       Cr329   2.000       .  S
O325        C326   1.260       .  A
C326       C1069   1.483       .  S
Cr327       O330   1.784       .  S
Cr328      O1985   2.006       .  S
Cr328       O330   1.776       .  S
Cr329       O330   1.767       .  S
O331       Cr349   2.004       .  S
O331        C339   1.262       .  A
O332       Cr349   1.997       .  S
O332        C333   1.268       .  A
C333        O334   1.261       .  A
C333        C999   1.487       .  S
O334       Cr350   1.997       .  S
O335       Cr350   2.019       .  S
O335        C336   1.277       .  A
C336        O337   1.268       .  A
C336        C959   1.483       .  S
O337       Cr351   1.994       .  S
O338       Cr351   1.958       .  S
O338        C339   1.257       .  A
C339        C979   1.483       .  S
O340       Cr349   1.966       .  S
O340        C348   1.259       .  A
O341       Cr349   1.977       .  S
O341       C2006   1.259       .  A
C342       O2005   1.251       .  A
C342       O2007   1.272       .  A
C342        C969   1.466       .  S
O343       Cr350   2.025       .  S
O343       C2006   1.271       .  A
O344       Cr350   1.981       .  S
O344        C345   1.252       .  A
C345        O346   1.250       .  A
C345       C1239   1.451       .  S
O346       Cr351   1.973       .  S
O347       Cr351   1.978       .  S
O347        C348   1.259       .  A
C348        C986   1.464       .  S
Cr349       O352   1.789       .  S
Cr350       O352   1.784       .  S
Cr351       O352   1.775       .  S
O353       Cr371   1.998       .  S
O353       C2025   1.262   1_554  A
O354       Cr371   1.986       .  S
O354        C355   1.269       .  A
C355        O356   1.266       .  A
C355        C936   1.494       .  S
O356       Cr372   2.018       .  S
O357       Cr372   2.008       .  S
O357        C358   1.273   1_554  A
C358       O2023   1.269       .  A
C358       C3050   1.479       .  S
O359      Cr2037   2.002       .  S
O359       C2022   1.266       .  A
O360      Cr2037   1.959       .  S
O360        C361   1.258       .  A
C361       O2017   1.265       .  A
C361       C1309   1.479   1_455  S
O362       Cr371   1.984       .  S
O362        C370   1.261       .  A
O363       Cr371   1.966       .  S
O363        C364   1.253       .  A
C364        O365   1.270       .  A
C364       C1299   1.454       .  S
O365       Cr372   2.014       .  S
O366       Cr372   2.007       .  S
O366        C367   1.260       .  A
C367        O368   1.252       .  A
C367       C1486   1.477       .  S
O368       Cr373   1.969       .  S
O369       Cr373   1.996       .  S
O369        C370   1.262       .  A
C370        C949   1.472   1_455  S
Cr371       O374   1.787       .  S
Cr372       O374   1.786       .  S
Cr373      O2023   2.002   1_554  S
Cr373      O2024   1.958   1_554  S
Cr373       O374   1.772       .  S
O375       Cr393   2.009       .  S
O375        C383   1.260       .  A
O376       Cr393   1.984       .  S
O376        C377   1.270       .  A
C377        O378   1.271       .  A
C377        C939   1.497       .  S
O378       Cr394   2.027       .  S
O379       Cr394   2.005       .  S
O379        C380   1.268       .  A
C380        O381   1.266       .  A
C380       C1009   1.484       .  S
O381       Cr395   2.001       .  S
O382       Cr395   1.955       .  S
O382        C383   1.255       .  A
C383       C1339   1.477   1_455  S
O384       Cr393   1.990       .  S
O384        C392   1.264   1_455  A
O385       Cr393   1.971       .  S
O385        C386   1.253       .  A
C386        O387   1.261       .  A
C386       C1329   1.449       .  S
O387       Cr394   1.993       .  S
O388       Cr394   2.013       .  S
O388        C389   1.267       .  A
C389        O390   1.253       .  A
C389        C916   1.478       .  S
O390       Cr395   1.965       .  S
O391       Cr395   2.000       .  S
O391        C392   1.264   1_455  A
C392        C929   1.482       .  S
Cr393       O396   1.789       .  S
Cr394       O396   1.780       .  S
Cr395       O396   1.774       .  S
O397       Cr415   1.997       .  S
O397       C2069   1.261   1_554  A
O398       Cr415   1.981       .  S
O398        C399   1.266       .  A
C399        O400   1.261       .  A
C399        C909   1.481       .  S
O400       Cr416   1.992       .  S
O401       Cr416   2.016       .  S
O401        C402   1.269   1_554  A
C402       O2067   1.263       .  A
C402       C3283   1.482       .  S
O403      Cr2081   1.987       .  S
O403       C2066   1.261       .  A
O404      Cr2081   1.958       .  S
O404        C405   1.256       .  A
C405       O2061   1.260       .  A
C405       C1049   1.466       .  S
O406       Cr415   1.994       .  S
O406        C414   1.264       .  A
O407       Cr415   1.971       .  S
O407        C408   1.257       .  A
C408        O409   1.274       .  A
C408       C1039   1.469       .  S
O409       Cr416   2.015       .  S
O410       Cr416   2.010       .  S
O410        C411   1.264       .  A
C411        O412   1.254       .  A
C411        C896   1.477       .  S
O412       Cr417   1.961       .  S
O413       Cr417   1.992       .  S
O413        C414   1.260       .  A
C414       C1446   1.481   1_655  S
Cr415       O418   1.786       .  S
Cr416       O418   1.782       .  S
Cr417      O2067   1.997   1_554  S
Cr417      O2068   1.952   1_554  S
Cr417       O418   1.768       .  S
O419       Cr437   2.020       .  S
O419        C427   1.262       .  A
O420       Cr437   1.979       .  S
O420        C421   1.268       .  A
C421        O422   1.263       .  A
C421        C906   1.488       .  S
O422       Cr438   1.997       .  S
O423       Cr438   2.013       .  S
O423        C424   1.267       .  A
C424        O425   1.261       .  A
C424       C1156   1.481       .  S
O425       Cr439   1.987       .  S
O426       Cr439   1.954       .  S
O426        C427   1.254       .  A
C427       C1099   1.473       .  S
O428       Cr437   1.989       .  S
O428        C436   1.263       .  A
O429       Cr437   1.975       .  S
O429        C430   1.257       .  A
C430        O431   1.268       .  A
C430       C1089   1.452       .  S
O431       Cr438   1.993       .  S
O432       Cr438   2.011       .  S
O432        C433   1.268       .  A
C433        O434   1.259       .  A
C433        C876   1.485       .  S
O434       Cr439   1.979       .  S
O435       Cr439   1.993       .  S
O435        C436   1.260       .  A
C436        C886   1.480   1_655  S
Cr437       O440   1.791       .  S
Cr438       O440   1.776       .  S
Cr439       O440   1.766       .  S
O441       Cr459   1.962       .  S
O441        C449   1.258       .  A
O442       Cr459   1.999       .  S
O442        C443   1.267       .  A
C443        O444   1.276       .  A
C443       C1286   1.488       .  S
O444       Cr460   2.020       .  S
O445       Cr460   2.032       .  S
O445        C446   1.270       .  A
C446        O447   1.268       .  A
C446        C869   1.505       .  S
O447       Cr461   1.982       .  S
O448       Cr461   2.001       .  S
O448        C449   1.261       .  A
C449       C1629   1.480       .  S
O450       Cr459   1.992       .  S
O450        C458   1.261       .  A
O451       Cr459   1.978       .  S
O451        C452   1.256       .  A
C452        O453   1.263       .  A
C452        C946   1.488       .  S
O453       Cr460   2.012       .  S
O454       Cr460   2.016       .  S
O454       C2119   1.269   1_554  A
C455       O2118   1.272       .  A
C455       O2120   1.254       .  A
C455       C1639   1.458       .  S
O456       Cr461   1.962       .  S
O456       C2119   1.254   1_554  A
O457       Cr461   1.970       .  S
O457        C458   1.258       .  A
C458        C899   1.458       .  S
Cr459       O462   1.776       .  S
Cr460       O462   1.785       .  S
Cr461       O462   1.790       .  S
O463       Cr481   1.959       .  S
O463        C471   1.258       .  A
O464       Cr481   2.007       .  S
O464        C465   1.269       .  A
C465        O466   1.277       .  A
C465       C1249   1.493       .  S
O466       Cr482   2.022       .  S
O467       Cr482   2.012       .  S
O467        C468   1.266       .  A
C468        O469   1.271       .  A
C468        C866   1.497       .  S
O469       Cr483   1.992       .  S
O470       Cr483   2.001       .  S
O470        C471   1.262       .  A
C471       C1569   1.474       .  S
O472       Cr481   1.995       .  S
O472        C480   1.262       .  A
O473       Cr481   1.975       .  S
O473        C474   1.254       .  A
C474        O475   1.257       .  A
C474        C846   1.479       .  S
O475       Cr482   1.994       .  S
O476      Cr2146   2.014       .  S
O476        C477   1.269   1_556  A
C477       O2142   1.256   1_554  A
C477       C1579   1.463       .  S
O478       Cr483   1.965       .  S
O478       C2141   1.252       .  A
O479       Cr483   1.982       .  S
O479        C480   1.262       .  A
C480        C856   1.476       .  S
Cr481       O484   1.778       .  S
Cr482      O2140   2.024       .  S
Cr482       O484   1.785       .  S
Cr483       O484   1.794       .  S
O485       Cr503   1.956       .  S
O485        C493   1.256       .  A
O486       Cr503   2.005       .  S
O486        C487   1.269       .  A
C487        O488   1.275       .  A
C487       C1509   1.490       .  S
O488       Cr504   2.019       .  S
O489       Cr504   2.001       .  S
O489        C490   1.265       .  A
C490        O491   1.269       .  A
C490        C816   1.493       .  S
O491       Cr505   1.988       .  S
O492       Cr505   1.993       .  S
O492        C493   1.260       .  A
C493        C826   1.471       .  S
O494       Cr503   1.991       .  S
O494        C502   1.262       .  A
O495       Cr503   1.975       .  S
O495        C496   1.252       .  A
C496        O497   1.257       .  A
C496       C1439   1.465       .  S
O497       Cr504   1.997       .  S
O498       Cr504   2.028       .  S
O498        C499   1.273       .  A
C499        O500   1.253       .  A
C499        C836   1.464       .  S
O500       Cr505   1.966       .  S
O501       Cr505   1.981       .  S
O501        C502   1.261       .  A
C502       C1559   1.473       .  S
Cr503       O506   1.774       .  S
Cr504       O506   1.780       .  S
Cr505       O506   1.791       .  S
O507      Cr2189   1.956       .  S
O507        C515   1.254       .  A
O508      Cr2189   1.999       .  S
O508       C2173   1.266       .  A
C509        O510   1.274   1_556  A
C509       O2172   1.268       .  A
C509       C2450   1.488       .  S
O510       Cr526   2.017       .  S
O511       Cr526   2.002       .  S
O511        C512   1.264       .  A
C512        O513   1.269       .  A
C512        C819   1.490       .  S
O513       Cr527   1.985       .  S
O514       Cr527   2.019       .  S
O514       C2179   1.268   1_554  A
C515       O2178   1.262       .  A
C515        C799   1.481       .  S
O516       Cr525   1.999       .  S
O516        C524   1.260       .  A
O517       Cr525   1.972       .  S
O517        C518   1.255       .  A
C518        O519   1.258       .  A
C518        C989   1.462       .  S
O519       Cr526   1.992       .  S
O520       Cr526   2.013       .  S
O520        C521   1.268       .  A
C521        O522   1.256       .  A
C521        C806   1.459       .  S
O522       Cr527   1.973       .  S
O523       Cr527   1.981       .  S
O523        C524   1.259       .  A
C524       C1109   1.479       .  S
Cr525      O2171   1.961   1_554  S
Cr525      O2172   2.006   1_554  S
Cr525       O528   1.770       .  S
Cr526       O528   1.782       .  S
Cr527       O528   1.783       .  S
O529       Cr547   1.962       .  S
O529        C537   1.258       .  A
O530       Cr547   1.993       .  S
O530        C531   1.266       .  A
C531        O532   1.279       .  A
C531        C789   1.492       .  S
O532       Cr548   2.031       .  S
O533       Cr548   2.037       .  S
O533        C534   1.272       .  A
C534        O535   1.273       .  A
C534        C766   1.515       .  S
O535       Cr549   1.995       .  S
O536       Cr549   2.007       .  S
O536        C537   1.264       .  A
C537        C966   1.480       .  S
O538       Cr547   1.976       .  S
O538        C546   1.257       .  A
O539       Cr547   1.971       .  S
O539        C540   1.251       .  A
C540        O541   1.263       .  A
C540        C756   1.478       .  S
O541       Cr548   2.020       .  S
O542       Cr548   2.031       .  S
O542        C543   1.273       .  A
C543        O544   1.253       .  A
C543        C976   1.469       .  S
O544       Cr549   1.968       .  S
O545       Cr549   1.988       .  S
O545        C546   1.262       .  A
C546        C776   1.470       .  S
Cr547       O550   1.775       .  S
Cr548       O550   1.782       .  S
Cr549       O550   1.787       .  S
O551       Cr569   1.957       .  S
O551        C559   1.258       .  A
O552       Cr569   1.966       .  S
O552        C553   1.260       .  A
C553        O554   1.281       .  A
C553       C1059   1.493       .  S
O554       Cr570   2.063       .  S
O555       Cr570   2.019       .  S
O555        C556   1.277       .  A
C556        O557   1.270       .  A
C556        C769   1.521       .  S
O557       Cr571   2.019       .  S
O558       Cr571   1.996       .  S
O558        C559   1.270       .  A
C559       C1019   1.479       .  S
O560       Cr569   2.016       .  S
O560        C568   1.267       .  A
O561       Cr569   1.978       .  S
O561        C562   1.255       .  A
C562        O563   1.263       .  A
C562        C889   1.477       .  S
O563       Cr570   2.004       .  S
O564       Cr570   2.029       .  S
O564        C565   1.263       .  A
C565        O566   1.245       .  A
C565       C1029   1.461       .  S
O566       Cr571   1.944       .  S
O567       Cr571   1.974       .  S
O567        C568   1.256       .  A
C568        C919   1.468       .  S
Cr569       O572   1.765       .  S
Cr570       O572   1.797       .  S
Cr571       O572   1.765       .  S
O573       Cr591   1.995       .  S
O573       C2245   1.262       .  A
O574       Cr591   1.987       .  S
O574        C575   1.268       .  A
C575        O576   1.267       .  A
C575        C749   1.502       .  S
O576       Cr592   2.021       .  S
O577       Cr592   2.010       .  S
O577       C2242   1.274       .  A
C578        O579   1.266       .  A
C578       O2241   1.278   1_554  A
C578       C1586   1.491       .  S
O579      Cr2257   1.996   1_554  S
O580      Cr2257   1.961   1_554  S
O580        C581   1.257       .  A
C581       O2237   1.263   1_554  A
C581        C839   1.481       .  S
O582       Cr591   1.982       .  S
O582        C590   1.261       .  A
O583       Cr591   1.963       .  S
O583        C584   1.256       .  A
C584        O585   1.268       .  A
C584        C829   1.452       .  S
O585       Cr592   2.006       .  S
O586       Cr592   2.010       .  S
O586        C587   1.261       .  A
C587        O588   1.254       .  A
C587        C859   1.480       .  S
O588       Cr593   1.978       .  S
O589       Cr593   1.992       .  S
O589        C590   1.260       .  A
C590       C1499   1.474       .  S
Cr591       O594   1.789       .  S
Cr592       O594   1.788       .  S
Cr593      O2243   2.005       .  S
Cr593      O2244   1.962       .  S
Cr593       O594   1.776       .  S
O595       Cr613   2.001       .  S
O595        C603   1.263       .  A
O596       Cr613   1.993       .  S
O596        C597   1.270       .  A
C597        O598   1.266       .  A
C597        C746   1.504       .  S
O598       Cr614   2.015       .  S
O599       Cr614   2.014       .  S
O599        C600   1.275       .  A
C600        O601   1.269       .  A
C600       C1139   1.484       .  S
O601       Cr615   2.000       .  S
O602       Cr615   1.961       .  S
O602        C603   1.258       .  A
C603        C809   1.478       .  S
O604       Cr613   1.978       .  S
O604        C612   1.261       .  A
O605       Cr613   1.963       .  S
O605        C606   1.254       .  A
C606        O607   1.271       .  A
C606        C796   1.457       .  S
O607       Cr614   2.019       .  S
O608       Cr614   2.008       .  S
O608        C609   1.260       .  A
C609        O610   1.257       .  A
C609        C736   1.488       .  S
O610       Cr615   1.985       .  S
O611       Cr615   1.999       .  S
O611        C612   1.263       .  A
C612        C759   1.480       .  S
Cr613       O616   1.791       .  S
Cr614       O616   1.785       .  S
Cr615       O616   1.777       .  S
O617       Cr635   1.992       .  S
O617        C625   1.268       .  A
O618       Cr635   1.964       .  S
O618        C619   1.259       .  A
C619        O620   1.285       .  A
C619       C1316   1.503       .  S
O620       Cr636   2.082       .  S
O621       Cr636   2.012       .  S
O621        C622   1.274       .  A
C622        O623   1.266       .  A
C622        C726   1.507       .  S
O623       Cr637   2.002       .  S
O624       Cr637   1.957       .  S
O624        C625   1.256       .  A
C625       C1169   1.443       .  S
O626       Cr635   2.013       .  S
O626        C634   1.263       .  A
O627       Cr635   2.001       .  S
O627        C628   1.263       .  A
C628        O629   1.262       .  A
C628        C926   1.481       .  S
O629       Cr636   1.987       .  S
O630       Cr636   2.067       .  S
O630        C631   1.271       .  A
C631        O632   1.243       .  A
C631       C1176   1.485       .  S
O632       Cr637   1.944       .  S
O633       Cr637   1.992       .  S
O633        C634   1.258       .  A
C634        C879   1.478       .  S
Cr635       O638   1.760       .  S
Cr636       O638   1.791       .  S
Cr637       O638   1.755       .  S
O639       Cr657   1.956       .  S
O639        C647   1.255       .  A
O640       Cr657   1.995       .  S
O640        C641   1.264       .  A
C641        O642   1.275       .  A
C641       C1199   1.490       .  S
O642       Cr658   2.030       .  S
O643       Cr658   2.016       .  S
O643        C644   1.265       .  A
C644        O645   1.269       .  A
C644        C729   1.499       .  S
O645       Cr659   1.987       .  S
O646       Cr659   1.993       .  S
O646        C647   1.259       .  A
C647       C1119   1.466       .  S
O648       Cr657   1.988       .  S
O648        C656   1.261       .  A
O649       Cr657   1.968       .  S
O649        C650   1.252       .  A
C650        O651   1.264       .  A
C650        C716   1.469       .  S
O651       Cr658   2.021       .  S
O652       Cr658   2.034       .  S
O652        C653   1.279       .  A
C653        O654   1.254       .  A
C653       C1129   1.480       .  S
O654       Cr659   1.960       .  S
O655       Cr659   1.997       .  S
O655        C656   1.264       .  A
C656        C739   1.479       .  S
Cr657       O660   1.771       .  S
Cr658       O660   1.785       .  S
Cr659       O660   1.786       .  S
O661       Cr679   2.011       .  S
O661       C2333   1.264       .  A
O662       Cr679   1.987       .  S
O662        C663   1.269       .  A
C663        O664   1.266       .  A
C663        C706   1.501       .  S
O664       Cr680   2.012       .  S
O665       Cr680   2.016       .  S
O665        C666   1.275       .  A
C666       O2331   1.270       .  A
C666       C3073   1.488       .  S
O667      Cr2345   2.005   1_554  S
O667       C2330   1.269       .  A
O668      Cr2345   1.958   1_554  S
O668        C669   1.257       .  A
C669       O2325   1.264   1_554  A
C669       C1269   1.481       .  S
O670       Cr679   1.972       .  S
O670        C678   1.258       .  A
O671       Cr679   1.971       .  S
O671        C672   1.256       .  A
C672        O673   1.271       .  A
C672       C1259   1.458       .  S
O673       Cr680   2.018       .  S
O674       Cr680   2.007       .  S
O674        C675   1.259       .  A
C675        O676   1.254       .  A
C675       C1546   1.481       .  S
O676       Cr681   1.976       .  S
O677       Cr681   1.989       .  S
O677        C678   1.260       .  A
C678        C849   1.463       .  S
Cr679       O682   1.793       .  S
Cr680       O682   1.786       .  S
Cr681      O2331   2.005       .  S
Cr681      O2332   1.958       .  S
Cr681       O682   1.773       .  S
O683       Cr701   2.002       .  S
O683        C691   1.264       .  A
O684       Cr701   1.995       .  S
O684        C685   1.271       .  A
C685        O686   1.262       .  A
C685        C709   1.496       .  S
O686       Cr702   1.999       .  S
O687       Cr702   2.017       .  S
O687        C688   1.275       .  A
C688        O689   1.268       .  A
C688        C956   1.486       .  S
O689       Cr703   2.001       .  S
O690       Cr703   1.960       .  S
O690        C691   1.259       .  A
C691       C1219   1.479       .  S
O692       Cr701   1.983       .  S
O692        C700   1.261       .  A
O693       Cr701   1.958       .  S
O693        C694   1.255       .  A
C694        O695   1.272       .  A
C694       C1209   1.457       .  S
O695       Cr702   2.018       .  S
O696       Cr702   1.992       .  S
O696        C697   1.257       .  A
C697        O698   1.257       .  A
C697        C779   1.473       .  S
O698       Cr703   1.985       .  S
O699       Cr703   1.995       .  S
O699        C700   1.261       .  A
C700        C719   1.486       .  S
Cr701       O704   1.788       .  S
Cr702       O704   1.783       .  S
Cr703       O704   1.776       .  S
C705        C706   1.410       .  A
C705        C710   1.406       .  A
C705        H712   1.083       .  S
C706        C707   1.413       .  A
C707        C708   1.411       .  A
C707        F714   1.357       .  S
C708        C709   1.409       .  A
C708        H713   1.083       .  S
C709        C710   1.410       .  A
C710        F711   1.358       .  S
C715        C716   1.398       .  A
C715        C720   1.401       .  A
C715        H722   1.083       .  S
C716        C717   1.404       .  A
C717        C718   1.397       .  A
C717        F724   1.357       .  S
C718        C719   1.406       .  A
C718        H723   1.083       .  S
C719        C720   1.415       .  A
C720        F721   1.357       .  S
C725        C726   1.414       .  A
C725        C730   1.397       .  A
C725        H732   1.083       .  S
C726        C727   1.410       .  A
C727        C728   1.416       .  A
C727        F734   1.357       .  S
C728        C729   1.415       .  A
C728        H733   1.083       .  S
C729        C730   1.406       .  A
C730        F731   1.358       .  S
C735        C736   1.411       .  A
C735        C740   1.403       .  A
C735        H742   1.083       .  S
C736        C737   1.407       .  A
C737        C738   1.399       .  A
C737        F744   1.357       .  S
C738        C739   1.406       .  A
C738        H743   1.084       .  S
C739        C740   1.404       .  A
C740        F741   1.358       .  S
C745        C746   1.410       .  A
C745        C750   1.409   1_545  A
C745        H752   1.083       .  S
C746        C747   1.412       .  A
C747        C748   1.412   1_545  A
C747        F754   1.357       .  S
C748        C749   1.410       .  A
C748        H753   1.083       .  S
C749        C750   1.410       .  A
C750        F751   1.357       .  S
C755        C756   1.405       .  A
C755        C760   1.402       .  A
C755        H762   1.083       .  S
C756        C757   1.405       .  A
C757        C758   1.397       .  A
C757        F764   1.356       .  S
C758        C759   1.405       .  A
C758        H763   1.083       .  S
C759        C760   1.409       .  A
C760        F761   1.357       .  S
C765        C766   1.417       .  A
C765        C770   1.420       .  A
C765        H772   1.083       .  S
C766        C767   1.409       .  A
C767        C768   1.408       .  A
C767        F774   1.358       .  S
C768        C769   1.416       .  A
C768        H773   1.082       .  S
C769        C770   1.412       .  A
C770        F771   1.356       .  S
C775        C776   1.398       .  A
C775        C780   1.393       .  A
C775        H782   1.084       .  S
C776        C777   1.410       .  A
C777        C778   1.398       .  A
C777        F784   1.358       .  S
C778        C779   1.401       .  A
C778        H783   1.083       .  S
C779        C780   1.410       .  A
C780        F781   1.356       .  S
C785        C786   1.406       .  A
C785        C790   1.409       .  A
C785        H792   1.083       .  S
C786       C2173   1.492       .  S
C786        C787   1.409       .  A
C787        C788   1.411       .  A
C787        F794   1.357       .  S
C788        C789   1.407       .  A
C788        H793   1.082       .  S
C789        C790   1.410       .  A
C790        F791   1.357       .  S
C795        C796   1.401       .  A
C795        C800   1.397       .  A
C795        H802   1.084       .  S
C796        C797   1.407       .  A
C797        C798   1.400       .  A
C797        F804   1.358       .  S
C798        C799   1.405       .  A
C798        H803   1.083       .  S
C799        C800   1.412       .  A
C800        F801   1.358       .  S
C805        C806   1.399       .  A
C805        C810   1.396       .  A
C805        H812   1.084       .  S
C806        C807   1.407       .  A
C807        C808   1.400       .  A
C807        F814   1.358       .  S
C808        C809   1.404       .  A
C808        H813   1.083       .  S
C809        C810   1.411       .  A
C810        F811   1.358       .  S
C815        C816   1.407       .  A
C815        C820   1.408   1_565  A
C815        H822   1.083       .  S
C816        C817   1.412       .  A
C817        C818   1.404   1_565  A
C817        F824   1.358       .  S
C818        C819   1.405       .  A
C818        H823   1.083       .  S
C819        C820   1.412       .  A
C820        F821   1.357       .  S
C825        C826   1.402       .  A
C825        C830   1.396       .  A
C825        H832   1.083       .  S
C826        C827   1.410       .  A
C827        C828   1.395       .  A
C827        F834   1.358       .  S
C828        C829   1.399       .  A
C828        H833   1.084       .  S
C829        C830   1.407       .  A
C830        F831   1.358       .  S
C835        C836   1.408       .  A
C835        C840   1.401       .  A
C835        H842   1.084       .  S
C836        C837   1.402       .  A
C837        C838   1.397       .  A
C837        F844   1.358       .  S
C838        C839   1.408       .  A
C838        H843   1.083       .  S
C839        C840   1.406       .  A
C840        F841   1.358       .  S
C845        C846   1.406       .  A
C845        C850   1.398       .  A
C845        H852   1.083       .  S
C846        C847   1.411       .  A
C847        C848   1.394       .  A
C847        F854   1.357       .  S
C848        C849   1.399       .  A
C848        H853   1.084       .  S
C849        C850   1.402       .  A
C850       F2515   1.357       .  S
F851       C2514   1.357       .  S
C855        C856   1.403       .  A
C855        C860   1.397       .  A
C855        H862   1.083       .  S
C856        C857   1.407       .  A
C857        C858   1.400       .  A
C857        F864   1.358       .  S
C858        C859   1.405       .  A
C858        H863   1.083       .  S
C859        C860   1.409       .  A
C860        F861   1.357       .  S
C865        C866   1.408       .  A
C865        C870   1.408       .  A
C865        H872   1.083       .  S
C866       C2531   1.411       .  A
C867        C868   1.411   1_556  A
C867       C2530   1.412       .  A
C867        F874   1.357       .  S
C868        C869   1.409       .  A
C868        H873   1.083       .  S
C869       C2534   1.414       .  A
C870       C2533   1.411       .  A
C870        F871   1.357       .  S
C875        C876   1.410       .  A
C875        C880   1.407       .  A
C875        H882   1.083       .  S
C876        C877   1.406       .  A
C877        C878   1.395       .  A
C877        F884   1.358       .  S
C878        C879   1.404       .  A
C878        H883   1.082       .  S
C879        C880   1.405       .  A
C880        F881   1.357       .  S
C885        C886   1.412       .  A
C885        C890   1.399       .  A
C885        H892   1.083       .  S
C886        C887   1.403       .  A
C887        C888   1.395       .  A
C887        F894   1.358       .  S
C888        C889   1.409       .  A
C888        H893   1.084       .  S
C889        C890   1.402       .  A
C890        F891   1.357       .  S
C895        C896   1.409       .  A
C895        C900   1.396       .  A
C895        H902   1.083       .  S
C896        C897   1.409       .  A
C897        C898   1.394       .  A
C897        F904   1.358       .  S
C898        C899   1.400       .  A
C898        H903   1.084       .  S
C899        C900   1.399       .  A
C900        F901   1.357       .  S
C905        C906   1.409       .  A
C905        C910   1.403   1_545  A
C905        H912   1.083       .  S
C906        C907   1.410       .  A
C907        C908   1.403   1_545  A
C907        F914   1.357       .  S
C908        C909   1.406       .  A
C908        H913   1.083       .  S
C909        C910   1.407       .  A
C910        F911   1.358       .  S
C915        C916   1.408       .  A
C915        C920   1.404       .  A
C915        H922   1.083       .  S
C916        C917   1.402       .  A
C917        C918   1.396       .  A
C917        F924   1.358       .  S
C918        C919   1.405       .  A
C918        H923   1.082       .  S
C919        C920   1.404       .  A
C920        F921   1.357       .  S
C925        C926   1.408       .  A
C925        C930   1.399       .  A
C925        H932   1.083       .  S
C926        C927   1.404       .  A
C927        C928   1.397       .  A
C927        F934   1.357       .  S
C928        C929   1.409       .  A
C928        H933   1.083       .  S
C929        C930   1.406       .  A
C930        F931   1.357       .  S
C935        C936   1.407       .  A
C935        C940   1.404       .  A
C935        H942   1.083       .  S
C936        C937   1.410       .  A
C937        C938   1.411       .  A
C937        F944   1.357       .  S
C938        C939   1.410       .  A
C938        H943   1.083       .  S
C939        C940   1.410       .  A
C940        F941   1.357       .  S
C945        C946   1.408       .  A
C945        C950   1.398       .  A
C945       H2616   1.083       .  S
C946        C947   1.412       .  A
C947        C948   1.402       .  A
C947        F954   1.357       .  S
C948        C949   1.403       .  A
C948        H953   1.083       .  S
C949        C950   1.402       .  A
C950       F2615   1.358       .  S
F951       C2614   1.358       .  S
H952       C2609   1.083       .  S
C955        C956   1.406       .  A
C955        C960   1.405       .  A
C955        H962   1.084       .  S
C956        C957   1.407       .  A
C957        C958   1.408       .  A
C957        F964   1.356       .  S
C958        C959   1.407       .  A
C958        H963   1.083       .  S
C959        C960   1.407       .  A
C960        F961   1.358       .  S
C965        C966   1.402       .  A
C965        C970   1.400       .  A
C965        H972   1.083       .  S
C966        C967   1.412       .  A
C967        C968   1.400       .  A
C967        F974   1.358       .  S
C968        C969   1.399       .  A
C968       H2637   1.083       .  S
C969        C970   1.411       .  A
C970        F971   1.357       .  S
H973       C2632   1.081   1_554  S
C975        C976   1.400       .  A
C975        C980   1.401       .  A
C975        H982   1.084       .  S
C976        C977   1.411       .  A
C977        C978   1.400       .  A
C977        F984   1.358       .  S
C978        C979   1.403       .  A
C978        H983   1.083       .  S
C979        C980   1.414       .  A
C980        F981   1.358       .  S
C985        C986   1.401       .  A
C985        C990   1.391       .  A
C985        H992   1.084       .  S
C986        C987   1.407       .  A
C987        C988   1.393       .  A
C987        F994   1.358       .  S
C988        C989   1.400       .  A
C988        H993   1.084       .  S
C989        C990   1.406       .  A
C990        F991   1.358       .  S
C995        C996   1.408       .  A
C995       C1000   1.405       .  A
C995       H1002   1.083       .  S
C996       C2661   1.406       .  A
C997        C998   1.403       .  A
C997       C2660   1.420   1_554  A
C997       F1004   1.356       .  S
C998        C999   1.395       .  A
C998       H1003   1.083       .  S
C999       C2664   1.417   1_554  A
C1000      C2663   1.410       .  A
C1000      F1001   1.357       .  S
C1005      C1006   1.405       .  A
C1005      C1010   1.405       .  A
C1005      H1012   1.083       .  S
C1006      C1007   1.410       .  A
C1007      C1008   1.406       .  A
C1007      F1014   1.358       .  S
C1008      C1009   1.404       .  A
C1008      H1013   1.083       .  S
C1009      C1010   1.407       .  A
C1010      F1011   1.357       .  S
C1015      C1016   1.415       .  A
C1015      C1020   1.401       .  A
C1015      H2686   1.081       .  S
C1016      C1017   1.392       .  A
C1017      C1018   1.387       .  A
C1017      F1024   1.358       .  S
C1018      C1019   1.416       .  A
C1018      H1023   1.083       .  S
C1019      C1020   1.399       .  A
C1020      F1021   1.357       .  S
H1022      C2679   1.083       .  S
C1025      C1026   1.411       .  A
C1025      C1030   1.398       .  A
C1025      H1032   1.083       .  S
C1026      C1027   1.397       .  A
C1027      C1028   1.383       .  A
C1027      F1034   1.358       .  S
C1028      C1029   1.408       .  A
C1028      H1033   1.084       .  S
C1029      C1030   1.398       .  A
C1030      F1031   1.357       .  S
C1035      C1036   1.419       .  A
C1035      C1040   1.390       .  A
C1035      H1042   1.083       .  S
C1036      C1037   1.398       .  A
C1037      C1038   1.405       .  A
C1037      F1044   1.357       .  S
C1038      C1039   1.415       .  A
C1038      H1043   1.078       .  S
C1039      C1040   1.392       .  A
C1040      F1041   1.358       .  S
C1045      C1046   1.398       .  A
C1045      C1050   1.386   1_455  A
C1045      H1052   1.084       .  S
C1046      C1047   1.407       .  A
C1047      C1048   1.402       .  A
C1047      F1054   1.357       .  S
C1048      C1049   1.404   1_455  A
C1048      H1053   1.083       .  S
C1049      C1050   1.407       .  A
C1050      F1051   1.358       .  S
C1055      C1056   1.406       .  A
C1055      C1060   1.407       .  A
C1055      H1062   1.083       .  S
C1056      C1057   1.413       .  A
C1057      C1058   1.407       .  A
C1057      F1064   1.358       .  S
C1058      C1059   1.406       .  A
C1058      H1063   1.084       .  S
C1059      C1060   1.412       .  A
C1060      F1061   1.357       .  S
C1065      C1066   1.411       .  A
C1065      C1070   1.396       .  A
C1065      H1072   1.083       .  S
C1066      C1067   1.405       .  A
C1067      C1068   1.404       .  A
C1067      F1074   1.357       .  S
C1068      C1069   1.411       .  A
C1068      H1073   1.083       .  S
C1069      C1070   1.402       .  A
C1070      F1071   1.358       .  S
C1075      C1076   1.418       .  A
C1075      C1080   1.427   1_565  A
C1075      H1082   1.083       .  S
C1076      C1077   1.407       .  A
C1077      C1078   1.393   1_565  A
C1077      F1084   1.358       .  S
C1078      C1079   1.411       .  A
C1078      H1083   1.083       .  S
C1079      C1080   1.414       .  A
C1080      F1081   1.356       .  S
C1085      C1086   1.400       .  A
C1085      C1090   1.400       .  A
C1085      H1092   1.083       .  S
C1086      C1087   1.423       .  A
C1087      C1088   1.382       .  A
C1087      F1094   1.359       .  S
C1088      C1089   1.387       .  A
C1088      H1093   1.085       .  S
C1089      C1090   1.411       .  A
C1090      F1091   1.356       .  S
C1095      C1096   1.406       .  A
C1095      C1100   1.405       .  A
C1095      H1102   1.082       .  S
C1096      C1097   1.400       .  A
C1097      C1098   1.384   1_455  A
C1097      F1104   1.359       .  S
C1098      C1099   1.405       .  A
C1098      H1103   1.084       .  S
C1099      C1100   1.407   1_655  A
C1100      F1101   1.357       .  S
C1105      C1106   1.403       .  A
C1105      C1110   1.399       .  A
C1105      H1112   1.083       .  S
C1106      C1107   1.412       .  A
C1107      C1108   1.396       .  A
C1107      F1114   1.358       .  S
C1108      C1109   1.401       .  A
C1108      H1113   1.084       .  S
C1109      C1110   1.411       .  A
C1110      F1111   1.357       .  S
C1115      C1116   1.403       .  A
C1115      C1120   1.398       .  A
C1115      H1122   1.081       .  S
C1116      C1117   1.402       .  A
C1117      C1118   1.388       .  A
C1117      F1124   1.359       .  S
C1118      C1119   1.404       .  A
C1118      H1123   1.084       .  S
C1119      C1120   1.406       .  A
C1120      F1121   1.357       .  S
C1125      C1126   1.419       .  A
C1125      C1130   1.397       .  A
C1125      H1132   1.084       .  S
C1126      C1127   1.396       .  A
C1127      C1128   1.401       .  A
C1127      F1134   1.357       .  S
C1128      C1129   1.420       .  A
C1128      H1133   1.083       .  S
C1129      C1130   1.395       .  A
C1130      F1131   1.357       .  S
C1135      C1136   1.407       .  A
C1135      C1140   1.407       .  A
C1135      H1142   1.084       .  S
C1136      C1137   1.410       .  A
C1137      C1138   1.406       .  A
C1137      F1144   1.357       .  S
C1138      C1139   1.404       .  A
C1138      H1143   1.084       .  S
C1139      C1140   1.409       .  A
C1140      F1141   1.358       .  S
C1145      C1146   1.407       .  A
C1145      C1150   1.393       .  A
C1145      H1152   1.079       .  S
C1146      C1147   1.405       .  A
C1147      C1148   1.412       .  A
C1147      F1154   1.357       .  S
C1148      C1149   1.413       .  A
C1148      H1153   1.083       .  S
C1149      C1150   1.403       .  A
C1150      F1151   1.358       .  S
C1155      C1156   1.407       .  A
C1155      C1160   1.403       .  A
C1155      H1162   1.084       .  S
C1156      C1157   1.403       .  A
C1157      C1158   1.406       .  A
C1157      F1164   1.357       .  S
C1158      C1159   1.411       .  A
C1158      H1163   1.083       .  S
C1159      C1160   1.406       .  A
C1160      F1161   1.358       .  S
C1165      C1166   1.399       .  A
C1165      C1170   1.396       .  A
C1165      H1172   1.083       .  S
C1166      C1167   1.416       .  A
C1167      C1168   1.384       .  A
C1167      F2838   1.359   1_554  S
C1168      C1169   1.390       .  A
C1168      H1173   1.084       .  S
C1169      C1170   1.406       .  A
C1170      F1171   1.357       .  S
F1174      C2831   1.359       .  S
C1175      C1176   1.401       .  A
C1175      C1180   1.406       .  A
C1175      H1182   1.083       .  S
C1176      C1177   1.419       .  A
C1177      C1178   1.389       .  A
C1177      F1184   1.358       .  S
C1178      C1179   1.393       .  A
C1178      H1183   1.084       .  S
C1179      C1180   1.411       .  A
C1180      F1181   1.355       .  S
C1185      C1186   1.405       .  A
C1185      C1190   1.417       .  A
C1185      H1192   1.083       .  S
C1186      C2851   1.413       .  A
C1187      C1188   1.410       .  A
C1187      C2850   1.415   1_554  A
C1187      F1194   1.351       .  S
C1188      C1189   1.402       .  A
C1188      H1193   1.083       .  S
C1189      C2854   1.419   1_554  A
C1190      C2853   1.417       .  A
C1190      F1191   1.356       .  S
C1195      C1196   1.405       .  A
C1195      C1200   1.407       .  A
C1195      H1202   1.084       .  S
C1196      C1197   1.409       .  A
C1197      C1198   1.410       .  A
C1197      F1204   1.358       .  S
C1198      C1199   1.408       .  A
C1198      H1203   1.083       .  S
C1199      C1200   1.409       .  A
C1200      F1201   1.357       .  S
C1205      C1206   1.403       .  A
C1205      C1210   1.397       .  A
C1205      H1212   1.083       .  S
C1206      C1207   1.412       .  A
C1207      C1208   1.398       .  A
C1207      F1214   1.358       .  S
C1208      C1209   1.401       .  A
C1208      H1213   1.084       .  S
C1209      C1210   1.407       .  A
C1210      F1211   1.358       .  S
C1215      C1216   1.405       .  A
C1215      C1220   1.399       .  A
C1215      H1222   1.084       .  S
C1216      C1217   1.402       .  A
C1217      C1218   1.397       .  A
C1217      F1224   1.358       .  S
C1218      C1219   1.408       .  A
C1218      H1223   1.083       .  S
C1219      C1220   1.407       .  A
C1220      F1221   1.357       .  S
C1225      C1226   1.407       .  A
C1225      C1230   1.389       .  A
C1225      H1232   1.083       .  S
C1226      C1227   1.407       .  A
C1227      C1228   1.401       .  A
C1227      F1234   1.357       .  S
C1228      C1229   1.408       .  A
C1228      H1233   1.083       .  S
C1229      C1230   1.405       .  A
C1230      F1231   1.358       .  S
C1235      C1236   1.404       .  A
C1235      C1240   1.392       .  A
C1235      H1242   1.083       .  S
C1236      C1237   1.413       .  A
C1237      C1238   1.394       .  A
C1237      F2908   1.358       .  S
C1238      C1239   1.396       .  A
C1238      H1243   1.084       .  S
C1239      C1240   1.400       .  A
C1240      F1241   1.358       .  S
F1244      C2901   1.358       .  S
C1245      C1246   1.408       .  A
C1245      C1250   1.413       .  A
C1245      H1252   1.082       .  S
C1246      C1247   1.409       .  A
C1247      C1248   1.407       .  A
C1247      F1254   1.357       .  S
C1248      C1249   1.406       .  A
C1248      H1253   1.082       .  S
C1249      C1250   1.410       .  A
C1250      F1251   1.357       .  S
C1255      C1256   1.407       .  A
C1255      C1260   1.395       .  A
C1255      H1262   1.083       .  S
C1256      C1257   1.406       .  A
C1257      C1258   1.402       .  A
C1257      F1264   1.357       .  S
C1258      C1259   1.407       .  A
C1258      H1263   1.084       .  S
C1259      C1260   1.402       .  A
C1260      F1261   1.358       .  S
C1265      C1266   1.408       .  A
C1265      C1270   1.401       .  A
C1265      H1272   1.084       .  S
C1266      C1267   1.401       .  A
C1267      C1268   1.398       .  A
C1267      F1274   1.358       .  S
C1268      C1269   1.409       .  A
C1268      H1273   1.083       .  S
C1269      C1270   1.406       .  A
C1270      F2935   1.357       .  S
F1271      C2934   1.357       .  S
C1275      C1276   1.409       .  A
C1275      C1280   1.409       .  A
C1275      H1282   1.083       .  S
C1276      C1277   1.412       .  A
C1277      C1278   1.408       .  A
C1277      F1284   1.357       .  S
C1278      C1279   1.408       .  A
C1278      H1283   1.083       .  S
C1279      C1280   1.412       .  A
C1280      F1281   1.358       .  S
C1285      C1286   1.406       .  A
C1285      C1290   1.409       .  A
C1285      H1292   1.083       .  S
C1286      C1287   1.408       .  A
C1287      C1288   1.408       .  A
C1287      F1294   1.357       .  S
C1288      C1289   1.407       .  A
C1288      H1293   1.083       .  S
C1289      C1290   1.408       .  A
C1290      F1291   1.355       .  S
C1295      C1296   1.404       .  A
C1295      C1300   1.397       .  A
C1295      H1302   1.083       .  S
C1296      C1297   1.410       .  A
C1297      C1298   1.396       .  A
C1297      F1304   1.358   1_455  S
C1298      C1299   1.400       .  A
C1298      H1303   1.084       .  S
C1299      C1300   1.407       .  A
C1300      F1301   1.358       .  S
C1305      C1306   1.406       .  A
C1305      C1310   1.399       .  A
C1305      H1312   1.084       .  S
C1306      C1307   1.403       .  A
C1307      C1308   1.398       .  A
C1307      F1314   1.358       .  S
C1308      C1309   1.408       .  A
C1308      H1313   1.083   1_655  S
C1309      C1310   1.406       .  A
C1310      F1311   1.357       .  S
C1315      C1316   1.412       .  A
C1315      C1320   1.410       .  A
C1315      H1322   1.083       .  S
C1316      C1317   1.410       .  A
C1317      C1318   1.412       .  A
C1317      F1324   1.357       .  S
C1318      C1319   1.410       .  A
C1318      H1323   1.083       .  S
C1319      C1320   1.406       .  A
C1320      F1321   1.357   1_554  S
C1325      C1326   1.400       .  A
C1325      C1330   1.393       .  A
C1325      H1332   1.083       .  S
C1326      C1327   1.410       .  A
C1327      C1328   1.390       .  A
C1327      F1334   1.358   1_455  S
C1328      C1329   1.395       .  A
C1328      H1333   1.084       .  S
C1329      C1330   1.406       .  A
C1330      F1331   1.358       .  S
C1335      C1336   1.409       .  A
C1335      C1340   1.402       .  A
C1335      H1342   1.084       .  S
C1336      C1337   1.401       .  A
C1337      C1338   1.395       .  A
C1337      F1344   1.358       .  S
C1338      C1339   1.407       .  A
C1338      H1343   1.083   1_655  S
C1339      C1340   1.405       .  A
C1340      F1341   1.357       .  S
C1345      C1346   1.400       .  A
C1345      C1350   1.384       .  A
C1345      H1352   1.083       .  S
C1346      C1347   1.410       .  A
C1347      C1348   1.404       .  A
C1347      F1354   1.357       .  S
C1348      C1349   1.407       .  A
C1348      H1353   1.083       .  S
C1349      C1350   1.409       .  A
C1350      F1351   1.356       .  S
C1355      C1356   1.411       .  A
C1355      C1360   1.405       .  A
C1355      H1362   1.083       .  S
C1356      C1357   1.413       .  A
C1357      C1358   1.413       .  A
C1357      F1364   1.357       .  S
C1358      C1359   1.411       .  A
C1358      H1363   1.083       .  S
C1359      C1360   1.408       .  A
C1360      F1361   1.357       .  S
C1365      C1366   1.400       .  A
C1365      C1370   1.392       .  A
C1365      H1372   1.084       .  S
C1366      C1367   1.410       .  A
C1367      C1368   1.405       .  A
C1367      F3038   1.358       .  S
C1368      C1369   1.405       .  A
C1368      H1373   1.083       .  S
C1369      C1370   1.408       .  A
C1370      F1371   1.357       .  S
F1374      C3031   1.357       .  S
C1375      C1376   1.400       .  A
C1375      C1380   1.401       .  A
C1375      H1382   1.083       .  S
C1376      C1377   1.405       .  A
C1377      C1378   1.393       .  A
C1377      F1384   1.355       .  S
C1378      C1379   1.402       .  A
C1378      H1383   1.083       .  S
C1379      C1380   1.413       .  A
C1380      F1381   1.358       .  S
C1385      C1386   1.406       .  A
C1385      C1390   1.409       .  A
C1385      H1392   1.083       .  S
C1386      C2022   1.490       .  S
C1386      C1387   1.408       .  A
C1387      C1388   1.409       .  A
C1387      F1394   1.357       .  S
C1388      C1389   1.406       .  A
C1388      H1393   1.082       .  S
C1389      C1390   1.410       .  A
C1390      F1391   1.357       .  S
C1395      C1396   1.408       .  A
C1395      C1400   1.391       .  A
C1395      H1402   1.084       .  S
C1396      C1397   1.404       .  A
C1397      C1398   1.404       .  A
C1397      F1404   1.357       .  S
C1398      C1399   1.412       .  A
C1398      H1403   1.083       .  S
C1399      C1400   1.403       .  A
C1400      F1401   1.357       .  S
C1405      C1406   1.407       .  A
C1405      C1410   1.408       .  A
C1405      H1412   1.083       .  S
C1406      C1407   1.407       .  A
C1407      C1408   1.406       .  A
C1407      F1414   1.358       .  S
C1408      C1409   1.406       .  A
C1408      H1413   1.083       .  S
C1409      C2330   1.487       .  S
C1409      C1410   1.408       .  A
C1410      F3075   1.357   1_554  S
F1411      C3074   1.356       .  S
C1415      C1416   1.400       .  A
C1415      C1420   1.396       .  A
C1415      H1422   1.084       .  S
C1416      C1417   1.398       .  A
C1417      C1418   1.397       .  A
C1417      F1424   1.358       .  S
C1418      C1419   1.411       .  A
C1418      H1423   1.083       .  S
C1419      C1420   1.409       .  A
C1420      F1421   1.357       .  S
C1425      C1426   1.411       .  A
C1425      C1430   1.407       .  A
C1425      H1432   1.083       .  S
C1426      C1427   1.411       .  A
C1427      C1428   1.408       .  A
C1427      F1434   1.357       .  S
C1428      C1429   1.409       .  A
C1428      H1433   1.083       .  S
C1429      C1430   1.407       .  A
C1430      F1431   1.357       .  S
C1435      C1436   1.409       .  A
C1435      C1440   1.397       .  A
C1435      H1442   1.083       .  S
C1436      C1437   1.406       .  A
C1437      C1438   1.395       .  A
C1437      F1444   1.358       .  S
C1438      C1439   1.403       .  A
C1438      H1443   1.082       .  S
C1439      C1440   1.400       .  A
C1440      F1441   1.357       .  S
C1445      C1446   1.407       .  A
C1445      C1450   1.402       .  A
C1445      H1452   1.084       .  S
C1446      C1447   1.405       .  A
C1447      C1448   1.401       .  A
C1447      F1454   1.357       .  S
C1448      C1449   1.409       .  A
C1448      H1453   1.083       .  S
C1449      C1450   1.408       .  A
C1450      F1451   1.357       .  S
C1455      C1456   1.406       .  A
C1455      C1460   1.408       .  A
C1455      H1462   1.084       .  S
C1456      C1457   1.411       .  A
C1457      C1458   1.410       .  A
C1457      F1464   1.357       .  S
C1458      C1459   1.406       .  A
C1458      H1463   1.083       .  S
C1459      C1460   1.410       .  A
C1460      F1461   1.358       .  S
C1465      C1466   1.409       .  A
C1465      C1470   1.397       .  A
C1465      H1472   1.083       .  S
C1466      C1467   1.404       .  A
C1467      C1468   1.399       .  A
C1467      F1474   1.357       .  S
C1468      C1469   1.408       .  A
C1468      H1473   1.084       .  S
C1469      C1470   1.401       .  A
C1470      F1471   1.358       .  S
C1475      C1476   1.404       .  A
C1475      C1480   1.401       .  A
C1475      H1482   1.083       .  S
C1476      C1477   1.401       .  A
C1477      C1478   1.383       .  A
C1477      F1484   1.359       .  S
C1478      C1479   1.403       .  A
C1478      H1483   1.084       .  S
C1479      C1480   1.407       .  A
C1480      F1481   1.357       .  S
C1485      C1486   1.406       .  A
C1485      C1490   1.397       .  A
C1485      H1492   1.083       .  S
C1486      C1487   1.408       .  A
C1487      C1488   1.397       .  A
C1487      F1494   1.357       .  S
C1488      C1489   1.403       .  A
C1488      H1493   1.084       .  S
C1489      C1490   1.404       .  A
C1490      F1491   1.358       .  S
C1495      C1496   1.407       .  A
C1495      C1500   1.401       .  A
C1495      H1502   1.083       .  S
C1496      C1497   1.410       .  A
C1497      C1498   1.397       .  A
C1497      F1504   1.357       .  S
C1498      C1499   1.402       .  A
C1498      H1503   1.084       .  S
C1499      C1500   1.406       .  A
C1500      F1501   1.357       .  S
C1505      C1506   1.407       .  A
C1505      C1510   1.409       .  A
C1505      H1512   1.083       .  S
C1506      C1507   1.409       .  A
C1507      C1508   1.409       .  A
C1507      F1514   1.357       .  S
C1508      C1509   1.406       .  A
C1508      H1513   1.083       .  S
C1509      C1510   1.408       .  A
C1510      F1511   1.357       .  S
C1515      C1516   1.409       .  A
C1515      C1520   1.398       .  A
C1515      H1522   1.083       .  S
C1516      C1517   1.405       .  A
C1517      C1518   1.399       .  A
C1517      F1524   1.357       .  S
C1518      C1519   1.407       .  A
C1518      H1523   1.084       .  S
C1519      C1520   1.402       .  A
C1520      F1521   1.358       .  S
C1525      C1526   1.400       .  A
C1525      C1530   1.396       .  A
C1525      H1532   1.084       .  S
C1526      C1527   1.407       .  A
C1527      C1528   1.401       .  A
C1527      F3198   1.358       .  S
C1528      C1529   1.405       .  A
C1528      H1533   1.083       .  S
C1529      C1530   1.412       .  A
C1530      F1531   1.358       .  S
F1534      C3191   1.358       .  S
C1535      C1540   1.415   1_556  A
C1535      C3200   1.409       .  A
C1535      H1542   1.083       .  S
C1536      C1537   1.408       .  A
C1536      C3199   1.419       .  A
C1537      C1538   1.406       .  A
C1537      F1544   1.357       .  S
C1538      C3203   1.415       .  A
C1538      H1543   1.083       .  S
C1539      C1540   1.416       .  A
C1539      C3202   1.409       .  A
C1540      F1541   1.357       .  S
C1545      C1546   1.404       .  A
C1545      C1550   1.399       .  A
C1545      H1552   1.083       .  S
C1546      C1547   1.410       .  A
C1547      C1548   1.398       .  A
C1547      F1554   1.356       .  S
C1548      C1549   1.402       .  A
C1548      H1553   1.083       .  S
C1549      C1550   1.408       .  A
C1550      F1551   1.358       .  S
C1555      C1556   1.405       .  A
C1555      C1560   1.396       .  A
C1555      H1562   1.083       .  S
C1556      C1557   1.406       .  A
C1557      C1558   1.397       .  A
C1557      F1564   1.358       .  S
C1558      C1559   1.405       .  A
C1558      H1563   1.083       .  S
C1559      C1560   1.405       .  A
C1560      F1561   1.358       .  S
C1565      C1566   1.409       .  A
C1565      C1570   1.400       .  A
C1565      H1572   1.084       .  S
C1566      C1567   1.401       .  A
C1567      C1568   1.397       .  A
C1567      F1574   1.358       .  S
C1568      C1569   1.408       .  A
C1568      H1573   1.084       .  S
C1569      C1570   1.403       .  A
C1570      F1571   1.357       .  S
C1575      C1576   1.407       .  A
C1575      C1580   1.395       .  A
C1575      H1582   1.083       .  S
C1576      C1577   1.406       .  A
C1577      C1578   1.403       .  A
C1577      F1584   1.357       .  S
C1578      C1579   1.408       .  A
C1578      H1583   1.084       .  S
C1579      C1580   1.400       .  A
C1580      F3245   1.358       .  S
F1581      C3244   1.358       .  S
C1585      C1586   1.407       .  A
C1585      C1590   1.407       .  A
C1585      H1592   1.079       .  S
C1586      C1587   1.409       .  A
C1587      C1588   1.410       .  A
C1587      F1594   1.357       .  S
C1588      C1589   1.407       .  A
C1588      H1593   1.083       .  S
C1589      C1590   1.407       .  A
C1590      F1591   1.358       .  S
C1595      C1596   1.400       .  A
C1595      C1600   1.392       .  A
C1595      H1602   1.084       .  S
C1596      C1597   1.407       .  A
C1597      C1598   1.399       .  A
C1597      F1604   1.357       .  S
C1598      C1599   1.402       .  A
C1598      H1603   1.083       .  S
C1599      C1600   1.406       .  A
C1600      F1601   1.356       .  S
C1605      C1606   1.415       .  A
C1605      C1610   1.411       .  A
C1605      H1612   1.083       .  S
C1606      C1607   1.403       .  A
C1607      C1608   1.382       .  A
C1607      F1614   1.358       .  S
C1608      C1609   1.408       .  A
C1608      H1613   1.083       .  S
C1609      C1610   1.404       .  A
C1610      F1611   1.356       .  S
C1615      C1616   1.409       .  A
C1615      C1620   1.414       .  A
C1615      H1622   1.083       .  S
C1616      C1617   1.406       .  A
C1617      C1618   1.402       .  A
C1617      F1624   1.358       .  S
C1618      C1619   1.406       .  A
C1618      H1623   1.084       .  S
C1619      C2066   1.488       .  S
C1619      C1620   1.410       .  A
C1620      F1621   1.357       .  S
C1625      C1626   1.405       .  A
C1625      C1630   1.401       .  A
C1625      H1632   1.084       .  S
C1626      C1627   1.401       .  A
C1627      C1628   1.395       .  A
C1627      F1634   1.358       .  S
C1628      C1629   1.407       .  A
C1628      H1633   1.083       .  S
C1629      C1630   1.409       .  A
C1630      F1631   1.357       .  S
C1635      C1636   1.406       .  A
C1635      C1640   1.395       .  A
C1635      H1642   1.083       .  S
C1636      C1637   1.406       .  A
C1637      C1638   1.401       .  A
C1637      F1644   1.358       .  S
C1638      C1639   1.408       .  A
C1638      H1643   1.084       .  S
C1639      C1640   1.401       .  A
C1640      F3305   1.358       .  S
F1641      C3304   1.358       .  S
C1645      C1646   1.408       .  A
C1645      C1650   1.408       .  A
C1645      H1652   1.083       .  S
C1646      C1647   1.413       .  A
C1647      C1648   1.406       .  A
C1647      F1654   1.357       .  S
C1648      C1649   1.405       .  A
C1648      H1653   1.083       .  S
C1649      C1650   1.412       .  A
C1650      F1651   1.357       .  S
C1655      C1656   1.398       .  A
C1655      C1660   1.391       .  A
C1655      H1662   1.084       .  S
C1656      C1657   1.406       .  A
C1657      C1658   1.400       .  A
C1657      F1664   1.358       .  S
C1658      C1659   1.405       .  A
C1658      H1663   1.083       .  S
C1659      C1660   1.409       .  A
C1660      F1661   1.355       .  S
O1665     Cr1683   2.003       .  S
O1665      C1673   1.263       .  A
O1666     Cr1683   1.993       .  S
O1666      C1667   1.272       .  A
C1667      O1668   1.269       .  A
C1667      C3313   1.499       .  S
O1668     Cr1684   2.021       .  S
O1669     Cr1684   2.014       .  S
O1669      C1670   1.269       .  A
C1670      O1671   1.263       .  A
C1670      C3280   1.480       .  S
O1671     Cr1685   1.990       .  S
O1672     Cr1685   1.961       .  S
O1672      C1673   1.259       .  A
C1673      C3300   1.478       .  S
O1674     Cr1683   1.997       .  S
O1674      C1682   1.263       .  A
O1675     Cr1683   1.957       .  S
O1675      C1676   1.252       .  A
C1676      O1677   1.265       .  A
C1676      C3290   1.451       .  S
O1677     Cr1684   2.002       .  S
O1678     Cr1684   2.018       .  S
O1678      C1679   1.269       .  A
C1679      O1680   1.255       .  A
C1679      C3270   1.490       .  S
O1680     Cr1685   1.976       .  S
O1681     Cr1685   1.977       .  S
O1681      C1682   1.257       .  A
C1682      C3320   1.474       .  S
Cr1683     O1686   1.786       .  S
Cr1684     O1686   1.776       .  S
Cr1685     O1686   1.776       .  S
O1687     Cr1705   2.007       .  S
O1687      C1695   1.264       .  A
O1688     Cr1705   1.987       .  S
O1688      C1689   1.270       .  A
C1689      O1690   1.269       .  A
C1689      C3310   1.507       .  S
O1690     Cr1706   2.025       .  S
O1691     Cr1706   2.016       .  S
O1691      C1692   1.275       .  A
C1692      O1693   1.268       .  A
C1692      C3253   1.485       .  S
O1693     Cr1707   2.001       .  S
O1694     Cr1707   1.962       .  S
O1694      C1695   1.259       .  A
C1695      C3240   1.482       .  S
O1696     Cr1705   1.974       .  S
O1696      C1704   1.260       .  A
O1697     Cr1705   1.968       .  S
O1697      C1698   1.254       .  A
C1698      O1699   1.270       .  A
C1698      C3230   1.461       .  S
O1699     Cr1706   2.019       .  S
O1700     Cr1706   2.009       .  S
O1700      C1701   1.261       .  A
C1701      O1702   1.253       .  A
C1701      C3220   1.473       .  S
O1702     Cr1707   1.974       .  S
O1703     Cr1707   1.990       .  S
O1703      C1704   1.260       .  A
C1704      C3260   1.472       .  S
Cr1705     O1708   1.784       .  S
Cr1706     O1708   1.783       .  S
Cr1707     O1708   1.775       .  S
O1709     Cr1727   1.958       .  S
O1709      C1717   1.258       .  A
O1710     Cr1727   1.997       .  S
O1710      C1711   1.266       .  A
C1711      O1712   1.276       .  A
C1711      C3170   1.488       .  S
O1712     Cr1728   2.022       .  S
O1713     Cr1728   2.027       .  S
O1713      C1714   1.268       .  A
C1714      O1715   1.272       .  A
C1714      C3200   1.508       .  S
O1715     Cr1729   1.995       .  S
O1716     Cr1729   2.013       .  S
O1716      C1717   1.266       .  A
C1717      C3180   1.482       .  S
O1718     Cr1727   1.986       .  S
O1718      C1726   1.258       .  A
O1719     Cr1727   1.973       .  S
O1719      C1720   1.253       .  A
C1720      O1721   1.261       .  A
C1720      C3160   1.475       .  S
O1721     Cr1728   2.010       .  S
O1722      C1723   1.270       .  A
C1723      C3190   1.460       .  S
O1724     Cr1729   1.968       .  S
O1725     Cr1729   1.981       .  S
O1725      C1726   1.260       .  A
C1726      C3213   1.466       .  S
Cr1727     O1730   1.777       .  S
Cr1728     O1730   1.786       .  S
Cr1729     O1730   1.791       .  S
O1731     Cr1749   1.944       .  S
O1731      C1739   1.254       .  A
O1732     Cr1749   1.962       .  S
O1732      C1733   1.262       .  A
C1733      O1734   1.282       .  A
C1733      C3123   1.493       .  S
O1734     Cr1750   2.060       .  S
O1735     Cr1750   2.018       .  S
O1735      C1736   1.272       .  A
C1736      O1737   1.263       .  A
C1736      C3203   1.517       .  S
O1737     Cr1751   1.996       .  S
O1738     Cr1751   2.003       .  S
O1738      C1739   1.270       .  A
C1739      C3130   1.485       .  S
O1740     Cr1749   2.025       .  S
O1740      C1748   1.272       .  A
O1741     Cr1749   1.974       .  S
O1741      C1742   1.251       .  A
C1742      O1743   1.261       .  A
C1742      C3113   1.483       .  S
O1743     Cr1750   2.014       .  S
O1744     Cr1750   2.018       .  S
C1745      C3140   1.461       .  S
O1746     Cr1751   1.930       .  S
O1747     Cr1751   1.974       .  S
O1747      C1748   1.258       .  A
C1748      C3153   1.480       .  S
Cr1749     O1752   1.774       .  S
Cr1750     O1752   1.798       .  S
Cr1751     O1752   1.781       .  S
O1753     Cr1771   2.004       .  S
O1753      C1761   1.262       .  A
O1754     Cr1771   1.983       .  S
O1754      C1755   1.269       .  A
C1755      O1756   1.267       .  A
C1755      C3090   1.491       .  S
O1756     Cr1772   2.014       .  S
O1757     Cr1772   2.020       .  S
O1757      C1758   1.274       .  A
C1758      O1759   1.265       .  A
C1758      C3070   1.488       .  S
O1759     Cr1773   1.996       .  S
O1760     Cr1773   1.961       .  S
O1760      C1761   1.258       .  A
C1761      C3193   1.479       .  S
O1762     Cr1771   1.976       .  S
O1762      C1770   1.261       .  A
O1763     Cr1771   1.972       .  S
O1763      C1764   1.253       .  A
C1764      O1765   1.267       .  A
C1764      C3183   1.462       .  S
O1765     Cr1772   2.017       .  S
O1766     Cr1772   1.992       .  S
O1766      C1767   1.259       .  A
C1767      O1768   1.253       .  A
C1767      C3080   1.455       .  S
O1768     Cr1773   1.963       .  S
O1769     Cr1773   1.993       .  S
O1769      C1770   1.262       .  A
C1770      C3100   1.469       .  S
Cr1771     O1774   1.789       .  S
Cr1772     O1774   1.784       .  S
Cr1773     O1774   1.779       .  S
O1775     Cr1793   2.007       .  S
O1775      C1783   1.264       .  A
O1776     Cr1793   1.991       .  S
O1776      C1777   1.271       .  A
C1777      O1778   1.264       .  A
C1777      C3093   1.499       .  S
O1778     Cr1794   2.005       .  S
O1779     Cr1794   2.006       .  S
O1779      C1780   1.269       .  A
C1780      O1781   1.267       .  A
C1780      C3053   1.479       .  S
O1781     Cr1795   2.001       .  S
O1782     Cr1795   1.962       .  S
O1782      C1783   1.258       .  A
C1783      C3143   1.481       .  S
O1784     Cr1793   1.994       .  S
O1784      C1792   1.264       .  A
O1785     Cr1793   1.968       .  S
O1785      C1786   1.255       .  A
C1786      O1787   1.272       .  A
C1786      C3133   1.457       .  S
O1787     Cr1794   2.007       .  S
O1788     Cr1794   2.018       .  S
O1788      C1789   1.263       .  A
C1789      O1790   1.257       .  A
C1789      C3040   1.478       .  S
O1790     Cr1795   1.985       .  S
O1791     Cr1795   1.996       .  S
O1791      C1792   1.261       .  A
C1792      C3063   1.487       .  S
Cr1793     O1796   1.789       .  S
Cr1794     O1796   1.785       .  S
Cr1795     O1796   1.775       .  S
O1797      C1805   1.258       .  A
O1798      C1799   1.268       .  A
C1799      C2983   1.498       .  S
O1800     Cr1816   2.029       .  S
O1801     Cr1816   2.010       .  S
O1801      C1802   1.266       .  A
C1802      O1803   1.268       .  A
C1802      C3020   1.497       .  S
O1803     Cr1817   1.984       .  S
O1804     Cr1817   1.997       .  S
C1805      C2990   1.460   1_655  S
O1806     Cr1815   1.996       .  S
O1806      C1814   1.261       .  A
O1807     Cr1815   1.974       .  S
O1807      C1808   1.254       .  A
C1808      O1809   1.263       .  A
C1808      C3010   1.475       .  S
O1809     Cr1816   1.990       .  S
O1810     Cr1816   2.019       .  S
O1810      C1811   1.270       .  A
C1811      O1812   1.253       .  A
C1811      C3000   1.458       .  S
O1812     Cr1817   1.964       .  S
O1813     Cr1817   1.983       .  S
O1813      C1814   1.261       .  A
C1814      C3030   1.481   1_655  S
Cr1815     O1818   1.773       .  S
Cr1816     O1818   1.774       .  S
Cr1817     O1818   1.783       .  S
O1819     Cr1837   1.954       .  S
O1819      C1827   1.253       .  A
O1820     Cr1837   1.997       .  S
O1820      C1821   1.265       .  A
C1821      O1822   1.274       .  A
C1821      C2953   1.489       .  S
O1822     Cr1838   2.023       .  S
O1823     Cr1838   2.005       .  S
O1823      C1824   1.266       .  A
C1824      O1825   1.271       .  A
C1824      C3023   1.492       .  S
O1825     Cr1839   1.991       .  S
O1826     Cr1839   2.005       .  S
O1826      C1827   1.262       .  A
C1827      C2960   1.474   1_655  S
O1828     Cr1837   2.010       .  S
O1828      C1836   1.265   1_655  A
O1829     Cr1837   1.969       .  S
O1829      C1830   1.255       .  A
C1830      O1831   1.258       .  A
C1830      C3323   1.456       .  S
O1831     Cr1838   1.991       .  S
O1832     Cr1838   2.019       .  S
O1832      C1833   1.269       .  A
C1833      O1834   1.253       .  A
C1833      C2970   1.459       .  S
O1834     Cr1839   1.963       .  S
O1835     Cr1839   1.988       .  S
O1835      C1836   1.263   1_655  A
C1836      C3043   1.492       .  S
Cr1837     O1840   1.774       .  S
Cr1838     O1840   1.780       .  S
Cr1839     O1840   1.790       .  S
O1841     Cr1859   1.962       .  S
O1841      C1849   1.259       .  A
O1842     Cr1859   1.995       .  S
O1842      C1843   1.265       .  A
C1843      O1844   1.272       .  A
C1843      C2910   1.485       .  S
O1844     Cr1860   2.016       .  S
O1845     Cr1860   2.008       .  S
O1845      C1846   1.267       .  A
C1846      O1847   1.271       .  A
C1846      C2940   1.493       .  S
O1847     Cr1861   1.986       .  S
O1848     Cr1861   2.011       .  S
O1848      C1849   1.264       .  A
C1849      C2920   1.478       .  S
O1850     Cr1859   1.987       .  S
O1850      C1858   1.259       .  A
O1851     Cr1859   1.973       .  S
O1851      C1852   1.254       .  A
C1852      O1853   1.261       .  A
C1852      C3263   1.464       .  S
O1853     Cr1860   2.001       .  S
O1854     Cr1860   2.022       .  S
O1854      C1855   1.270       .  A
C1855      O1856   1.254       .  A
C1855      C2930   1.466       .  S
O1856     Cr1861   1.965       .  S
O1857     Cr1861   1.980       .  S
O1857      C1858   1.259       .  A
C1858      C3083   1.465       .  S
Cr1859     O1862   1.776       .  S
Cr1860     O1862   1.782       .  S
Cr1861     O1862   1.784       .  S
O1863      C1871   1.258       .  A
O1864      C1865   1.266       .  A
C1865      C2860   1.485       .  S
O1866     Cr1882   2.018       .  S
O1867     Cr1882   2.002       .  S
O1867      C1868   1.263       .  A
C1868      O1869   1.269       .  A
C1868      C2943   1.495       .  S
O1869     Cr1883   1.989       .  S
O1870     Cr1883   2.002       .  S
C1871      C2870   1.479       .  S
O1872     Cr1881   1.984       .  S
O1872      C1880   1.258       .  A
O1873     Cr1881   1.977       .  S
O1873      C1874   1.252       .  A
C1874      O1875   1.261       .  A
C1874      C2893   1.482       .  S
O1875     Cr1882   1.999       .  S
O1876     Cr1882   2.014       .  S
O1876      C1877   1.270       .  A
C1877      O1878   1.255       .  A
C1877      C2880   1.458       .  S
O1878     Cr1883   1.971       .  S
O1879     Cr1883   1.975       .  S
O1879      C1880   1.259       .  A
C1880      C2900   1.462       .  S
Cr1881     O1884   1.776       .  S
Cr1882     O1884   1.776       .  S
Cr1883     O1884   1.789       .  S
O1885     Cr1903   1.986       .  S
O1885      C1893   1.265       .  A
O1886     Cr1903   2.026       .  S
O1886      C1887   1.270       .  A
C1887      O1888   1.274       .  A
C1887      C2850   1.504       .  S
O1888     Cr1904   2.013       .  S
O1889     Cr1904   2.070       .  S
O1889      C1890   1.284       .  A
C1890      O1891   1.257       .  A
C1890      C2823   1.488       .  S
O1891     Cr1905   1.946       .  S
O1892     Cr1905   1.981       .  S
O1892      C1893   1.263       .  A
C1893      C2843   1.463       .  S
O1894     Cr1903   1.988       .  S
O1894      C1902   1.261       .  A
O1895     Cr1903   1.931       .  S
C1896      O1897   1.267       .  A
C1896      C2830   1.463       .  S
O1898     Cr1904   2.010       .  S
O1898      C1899   1.262       .  A
C1899      O1900   1.259       .  A
C1899      C2813   1.496       .  S
O1900     Cr1905   1.995       .  S
O1901     Cr1905   1.991       .  S
O1901      C1902   1.261       .  A
C1902      C3013   1.477       .  S
Cr1903     O1906   1.759       .  S
Cr1904     O1906   1.785       .  S
Cr1905     O1906   1.761       .  S
O1907     Cr1925   1.998       .  S
O1907      C1915   1.269       .  A
O1908     Cr1925   2.025       .  S
O1908      C1909   1.271       .  A
C1909      O1910   1.266       .  A
C1909      C2853   1.497       .  S
O1910     Cr1926   1.989       .  S
O1911     Cr1926   2.057       .  S
O1911      C1912   1.280       .  A
C1912      O1913   1.261       .  A
C1912      C2800   1.489       .  S
O1913     Cr1927   1.965       .  S
O1914     Cr1927   1.958       .  S
O1914      C1915   1.256       .  A
C1915      C2790   1.486       .  S
O1916     Cr1925   1.982       .  S
O1916      C1924   1.262       .  A
O1917     Cr1925   1.929       .  S
C1918      C2780   1.452   1_554  S
O1919     Cr1926   2.023       .  S
O1920     Cr1926   1.990       .  S
O1920      C1921   1.257       .  A
C1921      O1922   1.255       .  A
C1921      C2770   1.480       .  S
O1922     Cr1927   1.986       .  S
O1923     Cr1927   2.014       .  S
O1923      C1924   1.270       .  A
C1924      C2890   1.481       .  S
Cr1925     O1928   1.777       .  S
Cr1926     O1928   1.790       .  S
Cr1927     O1928   1.771       .  S
O1929      C1937   1.251       .  A
O1930      C1931   1.264       .  A
C1931      C2720   1.498       .  S
O1932     Cr1948   2.064       .  S
O1933     Cr1948   2.031       .  S
O1933      C1934   1.276       .  A
C1934      O1935   1.266       .  A
C1934      C2743   1.527       .  S
O1935     Cr1949   1.998       .  S
O1936     Cr1949   1.998       .  S
C1937      C2750   1.475   1_455  S
O1938     Cr1947   2.023       .  S
O1938      C1946   1.271       .  A
O1939     Cr1947   1.974       .  S
O1939      C1940   1.254       .  A
C1940      O1941   1.263       .  A
C1940      C2730   1.488       .  S
O1941     Cr1948   2.011       .  S
O1942     Cr1948   2.023       .  S
O1942      C1943   1.267       .  A
C1943      O1944   1.254       .  A
C1943      C2760   1.458       .  S
O1944     Cr1949   1.940       .  S
O1945     Cr1949   1.982   1_655  S
O1945      C1946   1.257   1_655  A
C1946      C2810   1.477   1_455  S
Cr1947     O1950   1.772       .  S
Cr1948     O1950   1.800       .  S
Cr1949     O1950   1.771       .  S
O1951     Cr1969   1.940       .  S
O1951      C1959   1.252       .  A
O1952     Cr1969   1.967       .  S
O1952      C1953   1.261       .  A
C1953      O1954   1.281       .  A
C1953      C3120   1.492       .  S
O1954     Cr1970   2.056       .  S
O1955     Cr1970   2.026       .  S
O1955      C1956   1.274       .  A
C1956      O1957   1.267       .  A
C1956      C2740   1.525       .  S
O1957     Cr1971   2.000       .  S
O1958     Cr1971   2.004       .  S
O1958      C1959   1.270       .  A
C1959      C2700   1.487   1_455  S
O1960     Cr1969   2.031       .  S
O1960      C1968   1.274   1_455  A
O1961     Cr1969   1.975       .  S
O1961      C1962   1.251       .  A
C1962      O1963   1.262       .  A
C1962      C3060   1.484       .  S
O1963     Cr1970   2.013       .  S
O1964     Cr1970   2.008       .  S
O1964      C1965   1.263       .  A
C1965      O1966   1.252       .  A
C1965      C2710   1.448       .  S
O1966     Cr1971   1.935       .  S
O1967     Cr1971   1.973   1_655  S
O1967      C1968   1.259       .  A
C1968      C3273   1.486       .  S
Cr1969     O1972   1.778       .  S
Cr1970     O1972   1.802       .  S
Cr1971     O1972   1.781       .  S
O1973     Cr1991   2.008       .  S
O1973      C1981   1.261       .  A
O1974     Cr1991   1.998       .  S
O1974      C1975   1.271       .  A
C1975      O1976   1.261       .  A
C1975      C2660   1.485       .  S
O1976     Cr1992   1.989       .  S
O1977     Cr1992   2.018       .  S
O1977      C1978   1.272       .  A
C1978      O1979   1.262       .  A
C1978      C2670   1.481       .  S
O1979     Cr1993   1.985       .  S
O1980     Cr1993   1.963       .  S
O1980      C1981   1.256       .  A
C1981      C2690   1.469       .  S
O1982     Cr1991   1.996       .  S
O1982      C1990   1.265       .  A
O1983     Cr1991   1.971       .  S
C1984      O1985   1.269       .  A
C1984      C2680   1.456       .  S
O1986     Cr1992   1.993       .  S
O1986      C1987   1.261       .  A
C1987      O1988   1.260       .  A
C1987      C3033   1.469       .  S
O1988     Cr1993   1.990       .  S
O1989     Cr1993   2.000       .  S
O1989      C1990   1.262       .  A
C1990      C2733   1.484       .  S
Cr1991     O1994   1.785       .  S
Cr1992     O1994   1.777       .  S
Cr1993     O1994   1.768       .  S
O1995     Cr2013   1.997       .  S
O1995      C2003   1.263       .  A
O1996     Cr2013   1.985       .  S
O1996      C1997   1.270       .  A
C1997      O1998   1.265       .  A
C1997      C2663   1.491       .  S
O1998     Cr2014   2.000       .  S
O1999     Cr2014   2.020       .  S
O1999      C2000   1.274       .  A
C2000      O2001   1.265       .  A
C2000      C2623   1.485       .  S
O2001     Cr2015   1.995       .  S
O2002     Cr2015   1.968       .  S
O2002      C2003   1.260       .  A
C2003      C2643   1.478       .  S
O2004     Cr2013   1.987       .  S
O2004      C2012   1.260       .  A
O2005     Cr2013   1.963       .  S
C2006      C2633   1.469   1_554  S
O2007     Cr2014   2.030       .  S
O2008     Cr2014   1.992       .  S
O2008      C2009   1.260       .  A
C2009      O2010   1.255       .  A
C2009      C2903   1.474       .  S
O2010     Cr2015   1.975       .  S
O2011     Cr2015   1.986       .  S
O2011      C2012   1.259       .  A
C2012      C2650   1.463       .  S
Cr2013     O2016   1.782       .  S
Cr2014     O2016   1.779       .  S
Cr2015     O2016   1.775       .  S
O2017     Cr2035   2.010       .  S
O2018     Cr2035   1.987       .  S
O2018      C2019   1.271       .  A
C2019      O2020   1.271       .  A
C2019      C2600   1.505       .  S
O2020     Cr2036   2.037       .  S
O2021     Cr2036   2.020       .  S
O2021      C2022   1.273       .  A
O2024      C2025   1.257       .  A
C2025      C2973   1.475       .  S
O2026     Cr2035   1.979       .  S
O2026      C2034   1.260   1_455  A
O2027     Cr2035   1.969       .  S
O2027      C2028   1.254       .  A
C2028      O2029   1.265       .  A
C2028      C2963   1.453       .  S
O2029     Cr2036   2.006       .  S
O2030     Cr2036   2.019       .  S
O2030      C2031   1.269       .  A
C2031      O2032   1.252       .  A
C2031      C3150   1.482       .  S
O2032     Cr2037   1.965       .  S
O2033     Cr2037   1.993       .  S
O2033      C2034   1.260   1_455  A
C2034      C2613   1.475       .  S
Cr2035     O2038   1.783       .  S
Cr2036     O2038   1.779       .  S
Cr2037     O2038   1.778       .  S
O2039     Cr2057   2.010       .  S
O2039      C2047   1.261       .  A
O2040     Cr2057   1.988       .  S
O2040      C2041   1.272       .  A
C2041      O2042   1.274       .  A
C2041      C2603   1.510       .  S
O2042     Cr2058   2.041       .  S
O2043     Cr2058   2.010       .  S
O2043      C2044   1.269       .  A
C2044      O2045   1.266       .  A
C2044      C2673   1.484       .  S
O2045     Cr2059   1.998       .  S
O2046     Cr2059   1.955       .  S
O2046      C2047   1.256       .  A
C2047      C3003   1.480   1_455  S
O2048     Cr2057   1.986       .  S
O2048      C2056   1.263   1_455  A
O2049     Cr2057   1.965       .  S
O2049      C2050   1.252       .  A
C2050      O2051   1.261       .  A
C2050      C2993   1.449       .  S
O2051     Cr2058   1.995       .  S
O2052     Cr2058   2.020       .  S
O2052      C2053   1.269       .  A
C2053      O2054   1.252       .  A
C2053      C2580   1.477       .  S
O2054     Cr2059   1.961       .  S
O2055     Cr2059   1.999       .  S
O2055      C2056   1.263   1_455  A
C2056      C2593   1.477       .  S
Cr2057     O2060   1.786       .  S
Cr2058     O2060   1.781       .  S
Cr2059     O2060   1.777       .  S
O2061     Cr2079   1.998       .  S
O2062     Cr2079   1.981       .  S
O2062      C2063   1.266       .  A
C2063      O2064   1.260       .  A
C2063      C2573   1.491       .  S
O2064     Cr2080   2.000       .  S
O2065     Cr2080   2.030       .  S
O2065      C2066   1.274       .  A
O2068      C2069   1.255       .  A
C2069      C2713   1.460       .  S
O2070     Cr2079   1.997       .  S
O2070      C2078   1.265       .  A
O2071     Cr2079   1.962       .  S
O2071      C2072   1.256       .  A
C2072      O2073   1.274       .  A
C2072      C2703   1.461       .  S
O2073     Cr2080   2.014       .  S
O2074     Cr2080   2.004       .  S
O2074      C2075   1.264       .  A
C2075      O2076   1.261       .  A
C2075      C2560   1.484       .  S
O2076     Cr2081   1.984       .  S
O2077     Cr2081   1.996       .  S
O2077      C2078   1.260       .  A
C2078      C3110   1.493   1_655  S
Cr2079     O2082   1.792       .  S
Cr2080     O2082   1.786       .  S
Cr2081     O2082   1.774       .  S
O2083     Cr2101   2.015       .  S
O2083      C2091   1.262       .  A
O2084     Cr2101   1.983       .  S
O2084      C2085   1.267       .  A
C2085      O2086   1.264       .  A
C2085      C2570   1.491       .  S
O2086     Cr2102   2.004       .  S
O2087     Cr2102   2.009       .  S
O2087      C2088   1.265       .  A
C2088      O2089   1.261       .  A
C2088      C2820   1.479       .  S
O2089     Cr2103   1.992       .  S
O2090     Cr2103   1.953       .  S
O2090      C2091   1.253       .  A
C2091      C2763   1.467       .  S
O2092     Cr2101   1.997       .  S
O2092      C2100   1.265       .  A
O2093     Cr2101   1.977       .  S
O2093      C2094   1.259       .  A
C2094      O2095   1.266       .  A
C2094      C2753   1.453       .  S
O2095     Cr2102   1.984       .  S
O2096     Cr2102   2.016       .  S
O2096      C2097   1.270       .  A
C2097      O2098   1.258       .  A
C2097      C2540   1.476       .  S
O2098     Cr2103   1.969       .  S
O2099     Cr2103   2.003       .  S
O2099      C2100   1.261       .  A
C2100      C2550   1.491   1_655  S
Cr2101     O2104   1.787       .  S
Cr2102     O2104   1.778       .  S
Cr2103     O2104   1.770       .  S
O2105     Cr2123   1.956       .  S
O2105      C2113   1.257       .  A
O2106     Cr2123   2.002       .  S
O2106      C2107   1.267       .  A
C2107      O2108   1.277       .  A
C2107      C2950   1.492       .  S
O2108     Cr2124   2.025       .  S
O2109     Cr2124   2.017       .  S
O2109      C2110   1.266       .  A
C2110      O2111   1.266       .  A
C2110      C2533   1.500       .  S
O2111     Cr2125   1.981       .  S
O2112     Cr2125   1.988       .  S
O2112      C2113   1.261       .  A
C2113      C3293   1.461       .  S
O2114     Cr2123   1.988       .  S
O2114      C2122   1.259       .  A
O2115     Cr2123   1.973       .  S
O2115      C2116   1.252       .  A
C2116      O2117   1.261       .  A
C2116      C2610   1.466       .  S
O2117     Cr2124   2.005       .  S
O2118     Cr2124   2.019       .  S
C2119      C3303   1.455       .  S
O2120     Cr2125   1.966       .  S
O2121     Cr2125   1.987       .  S
O2121      C2122   1.262       .  A
C2122      C2563   1.474       .  S
Cr2123     O2126   1.772       .  S
Cr2124     O2126   1.783       .  S
Cr2125     O2126   1.788       .  S
O2127     Cr2145   1.961       .  S
O2127      C2135   1.259       .  A
O2128     Cr2145   2.000       .  S
O2128      C2129   1.267       .  A
C2129      O2130   1.273       .  A
C2129      C2913   1.485       .  S
O2130     Cr2146   2.015       .  S
O2131     Cr2146   2.012       .  S
O2131      C2132   1.266       .  A
C2132      O2133   1.272       .  A
C2132      C2530   1.501       .  S
O2133     Cr2147   1.997       .  S
O2134     Cr2147   2.009       .  S
O2134      C2135   1.264       .  A
C2135      C3233   1.480       .  S
O2136     Cr2145   1.989       .  S
O2136      C2144   1.259       .  A
O2137     Cr2145   1.971       .  S
O2137      C2138   1.254       .  A
C2138      O2139   1.261       .  A
C2138      C2510   1.479       .  S
O2139     Cr2146   2.007       .  S
O2140      C2141   1.270       .  A
C2141      C3243   1.463       .  S
O2142     Cr2147   1.976       .  S
O2143     Cr2147   1.986       .  S
O2143      C2144   1.263       .  A
C2144      C2520   1.472       .  S
Cr2145     O2148   1.779       .  S
Cr2146     O2148   1.784       .  S
Cr2147     O2148   1.791       .  S
O2149     Cr2167   1.962       .  S
O2149      C2157   1.259       .  A
O2150     Cr2167   2.003       .  S
O2150      C2151   1.267       .  A
C2151      O2152   1.273       .  A
C2151      C3173   1.486       .  S
O2152     Cr2168   2.017       .  S
O2153     Cr2168   2.008       .  S
O2153      C2154   1.265       .  A
C2154      O2155   1.270       .  A
C2154      C2480   1.495       .  S
O2155     Cr2169   1.987       .  S
O2156     Cr2169   2.014       .  S
O2156      C2157   1.267       .  A
C2157      C2490   1.485       .  S
O2158     Cr2167   1.994       .  S
O2158      C2166   1.260       .  A
O2159     Cr2167   1.973       .  S
O2159      C2160   1.254       .  A
C2160      O2161   1.261       .  A
C2160      C3103   1.470       .  S
O2161     Cr2168   2.003       .  S
O2162     Cr2168   2.013       .  S
O2162      C2163   1.270       .  A
C2163      O2164   1.256       .  A
C2163      C2500   1.460       .  S
O2164     Cr2169   1.968       .  S
O2165     Cr2169   1.978       .  S
O2165      C2166   1.259       .  A
C2166      C3223   1.475       .  S
Cr2167     O2170   1.772       .  S
Cr2168     O2170   1.783       .  S
Cr2169     O2170   1.785       .  S
O2171      C2179   1.260       .  A
C2173      O2174   1.275       .  A
O2174     Cr2190   2.025       .  S
O2175     Cr2190   2.009       .  S
O2175      C2176   1.267       .  A
C2176      O2177   1.271       .  A
C2176      C2483   1.497       .  S
O2177     Cr2191   1.988       .  S
O2178     Cr2191   2.010       .  S
C2179      C2463   1.485       .  S
O2180     Cr2189   2.007       .  S
O2180      C2188   1.265       .  A
O2181     Cr2189   1.971       .  S
O2181      C2182   1.255       .  A
C2182      O2183   1.259       .  A
C2182      C2653   1.462       .  S
O2183     Cr2190   1.990       .  S
O2184     Cr2190   2.025       .  S
O2184      C2185   1.270       .  A
C2185      O2186   1.252       .  A
C2185      C2470   1.465       .  S
O2186     Cr2191   1.970       .  S
O2187     Cr2191   1.977       .  S
O2187      C2188   1.261       .  A
C2188      C2773   1.477       .  S
Cr2189     O2192   1.780       .  S
Cr2190     O2192   1.780       .  S
Cr2191     O2192   1.791       .  S
O2193     Cr2211   1.954       .  S
O2193      C2201   1.255       .  A
O2194     Cr2211   1.996       .  S
O2194      C2195   1.266       .  A
C2195      O2196   1.277       .  A
C2195      C2453   1.488       .  S
O2196     Cr2212   2.027       .  S
O2197     Cr2212   2.020       .  S
O2197      C2198   1.268       .  A
C2198      O2199   1.276       .  A
C2198      C2430   1.514       .  S
O2199     Cr2213   2.004       .  S
O2200     Cr2213   2.018       .  S
O2200      C2201   1.267       .  A
C2201      C2630   1.486       .  S
O2202     Cr2211   1.994       .  S
O2202      C2210   1.260       .  A
O2203     Cr2211   1.973       .  S
O2203      C2204   1.254       .  A
C2204      O2205   1.262       .  A
C2204      C2420   1.476       .  S
O2205     Cr2212   2.010       .  S
O2206     Cr2212   2.019       .  S
O2206      C2207   1.271       .  A
C2207      O2208   1.254       .  A
C2207      C2640   1.459       .  S
O2208     Cr2213   1.968       .  S
O2209     Cr2213   1.989       .  S
O2209      C2210   1.262       .  A
C2210      C2440   1.485       .  S
Cr2211     O2214   1.770       .  S
Cr2212     O2214   1.778       .  S
Cr2213     O2214   1.787       .  S
O2215     Cr2233   1.960       .  S
O2215      C2223   1.258       .  A
O2216     Cr2233   1.958       .  S
O2216      C2217   1.258       .  A
C2217      O2218   1.286       .  A
C2217      C2723   1.497       .  S
O2218     Cr2234   2.080       .  S
O2219     Cr2234   2.020       .  S
O2219      C2220   1.277       .  A
C2220      O2221   1.268       .  A
C2220      C2433   1.518       .  S
O2221     Cr2235   2.010       .  S
O2222     Cr2235   1.990       .  S
O2222      C2223   1.267       .  A
C2223      C2683   1.476       .  S
O2224     Cr2233   2.012       .  S
O2224      C2232   1.267       .  A
O2225     Cr2233   1.982       .  S
O2225      C2226   1.256       .  A
C2226      O2227   1.266       .  A
C2226      C2553   1.486       .  S
O2227     Cr2234   2.017       .  S
O2228     Cr2234   2.051       .  S
O2228      C2229   1.269       .  A
C2229      O2230   1.246       .  A
C2229      C2693   1.476       .  S
O2230     Cr2235   1.940       .  S
O2231     Cr2235   1.979       .  S
O2231      C2232   1.258       .  A
C2232      C2583   1.467       .  S
Cr2233     O2236   1.764       .  S
Cr2234     O2236   1.795       .  S
Cr2235     O2236   1.764       .  S
O2237     Cr2255   2.009       .  S
O2238     Cr2255   1.988       .  S
O2238      C2239   1.271       .  A
C2239      O2240   1.266       .  A
C2239      C2413   1.498       .  S
O2240     Cr2256   2.016       .  S
O2241     Cr2256   2.028       .  S
C2242      O2243   1.269       .  A
C2242      C3250   1.485       .  S
O2244      C2245   1.260       .  A
C2245      C2503   1.469       .  S
O2246     Cr2255   1.979       .  S
O2246      C2254   1.260       .  A
O2247     Cr2255   1.972       .  S
O2247      C2248   1.253       .  A
C2248      O2249   1.271       .  A
C2248      C2493   1.464       .  S
O2249     Cr2256   2.025       .  S
O2250     Cr2256   1.995       .  S
O2250      C2251   1.259       .  A
C2251      O2252   1.256       .  A
C2251      C2523   1.482       .  S
O2252     Cr2257   1.986       .  S
O2253     Cr2257   1.991       .  S
O2253      C2254   1.262       .  A
C2254      C3163   1.473       .  S
Cr2255     O2258   1.794       .  S
Cr2256     O2258   1.781       .  S
Cr2257     O2258   1.776       .  S
O2259     Cr2277   2.012       .  S
O2259      C2267   1.263       .  A
O2260     Cr2277   1.992       .  S
O2260      C2261   1.270       .  A
C2261      O2262   1.266       .  A
C2261      C2410   1.496       .  S
O2262     Cr2278   2.014       .  S
O2263     Cr2278   2.014       .  S
O2263      C2264   1.274       .  A
C2264      O2265   1.267       .  A
C2264      C2803   1.480       .  S
O2265     Cr2279   1.992       .  S
O2266     Cr2279   1.958       .  S
O2266      C2267   1.254       .  A
C2267      C2473   1.484       .  S
O2268     Cr2277   1.972       .  S
O2268      C2276   1.260       .  A
O2269     Cr2277   1.975       .  S
O2269      C2270   1.256       .  A
C2270      O2271   1.274       .  A
C2270      C2460   1.465       .  S
O2271     Cr2278   2.024       .  S
O2272     Cr2278   2.010       .  S
O2272      C2273   1.261       .  A
C2273      O2274   1.257       .  A
C2273      C2400   1.491       .  S
O2274     Cr2279   1.985       .  S
O2275     Cr2279   1.998       .  S
O2275      C2276   1.263       .  A
C2276      C2423   1.471       .  S
Cr2277     O2280   1.792       .  S
Cr2278     O2280   1.782       .  S
Cr2279     O2280   1.776       .  S
O2281     Cr2299   1.979       .  S
O2281      C2289   1.264       .  A
O2282     Cr2299   1.960       .  S
O2282      C2283   1.258       .  A
C2283      O2284   1.288       .  A
C2283      C2980   1.504       .  S
O2284     Cr2300   2.091       .  S
O2285     Cr2300   2.005       .  S
O2285      C2286   1.273       .  A
C2286      O2287   1.267       .  A
C2286      C2390   1.505       .  S
O2287     Cr2301   2.005       .  S
O2288     Cr2301   1.964       .  S
O2288      C2289   1.258       .  A
C2289      C2833   1.440       .  S
O2290     Cr2299   2.000       .  S
O2290      C2298   1.261       .  A
O2291     Cr2299   1.987       .  S
O2291      C2292   1.260       .  A
C2292      O2293   1.263       .  A
C2292      C2590   1.480       .  S
O2293     Cr2300   1.993       .  S
O2294     Cr2300   2.072       .  S
O2294      C2295   1.274       .  A
C2295      O2296   1.244       .  A
C2295      C2840   1.488       .  S
O2296     Cr2301   1.940       .  S
O2297     Cr2301   1.996       .  S
O2297      C2298   1.260       .  A
C2298      C2543   1.468       .  S
Cr2299     O2302   1.757       .  S
Cr2300     O2302   1.786       .  S
Cr2301     O2302   1.756       .  S
O2303     Cr2321   1.964       .  S
O2303      C2311   1.259       .  A
O2304     Cr2321   2.005       .  S
O2304      C2305   1.266       .  A
C2305      O2306   1.272       .  A
C2305      C2863   1.487       .  S
O2306     Cr2322   2.019       .  S
O2307     Cr2322   2.012       .  S
O2307      C2308   1.263       .  A
C2308      O2309   1.267       .  A
C2308      C2393   1.497       .  S
O2309     Cr2323   1.985       .  S
O2310     Cr2323   1.986       .  S
O2310      C2311   1.260       .  A
C2311      C2783   1.472       .  S
O2312     Cr2321   1.989       .  S
O2312      C2320   1.260       .  A
O2313     Cr2321   1.967       .  S
O2313      C2314   1.251       .  A
C2314      O2315   1.266       .  A
C2314      C2380   1.473       .  S
O2315     Cr2322   2.030       .  S
O2316     Cr2322   2.021       .  S
O2316      C2317   1.277       .  A
C2317      O2318   1.256       .  A
C2317      C2793   1.470       .  S
O2318     Cr2323   1.964       .  S
O2319     Cr2323   2.000       .  S
O2319      C2320   1.265       .  A
C2320      C2403   1.482       .  S
Cr2321     O2324   1.772       .  S
Cr2322     O2324   1.788       .  S
Cr2323     O2324   1.781       .  S
O2325     Cr2343   2.009       .  S
O2326     Cr2343   1.989       .  S
O2326      C2327   1.270       .  A
C2327      O2328   1.265       .  A
C2327      C2370   1.499       .  S
O2328     Cr2344   2.008       .  S
O2329     Cr2344   2.015       .  S
O2329      C2330   1.274   1_556  A
O2332      C2333   1.258       .  A
C2333      C2933   1.480       .  S
O2334     Cr2343   1.977       .  S
O2334      C2342   1.260       .  A
O2335     Cr2343   1.974       .  S
O2335      C2336   1.255       .  A
C2336      O2337   1.270       .  A
C2336      C2923   1.460       .  S
O2337     Cr2344   2.016       .  S
O2338     Cr2344   1.997       .  S
O2338      C2339   1.259       .  A
C2339      O2340   1.254       .  A
C2339      C3210   1.479       .  S
O2340     Cr2345   1.977       .  S
O2341     Cr2345   1.994       .  S
O2341      C2342   1.262       .  A
C2342      C2513   1.469       .  S
Cr2343     O2346   1.792       .  S
Cr2344     O2346   1.783       .  S
Cr2345     O2346   1.775       .  S
O2347     Cr2365   2.002       .  S
O2347      C2355   1.264       .  A
O2348     Cr2365   1.987       .  S
O2348      C2349   1.267       .  A
C2349      O2350   1.264       .  A
C2349      C2373   1.494       .  S
O2350     Cr2366   2.011       .  S
O2351     Cr2366   2.018       .  S
O2351      C2352   1.274       .  A
C2352      O2353   1.267       .  A
C2352      C2620   1.485       .  S
O2353     Cr2367   1.999       .  S
O2354     Cr2367   1.960       .  S
O2354      C2355   1.259       .  A
C2355      C2883   1.472       .  S
O2356     Cr2365   1.983       .  S
O2356      C2364   1.261       .  A
O2357     Cr2365   1.965       .  S
O2357      C2358   1.257       .  A
C2358      O2359   1.270       .  A
C2358      C2873   1.456       .  S
O2359     Cr2366   2.013       .  S
O2360     Cr2366   2.007       .  S
O2360      C2361   1.261       .  A
C2361      O2362   1.257       .  A
C2361      C2443   1.471       .  S
O2362     Cr2367   1.985       .  S
O2363     Cr2367   1.998       .  S
O2363      C2364   1.261       .  A
C2364      C2383   1.487       .  S
Cr2365     O2368   1.785       .  S
Cr2366     O2368   1.783       .  S
Cr2367     O2368   1.773       .  S
C2369      C2370   1.411       .  A
C2369      C2374   1.407       .  A
C2369      H2376   1.083       .  S
C2370      C2371   1.411       .  A
C2371      C2372   1.409       .  A
C2371      F2378   1.357       .  S
C2372      C2373   1.409       .  A
C2372      H2377   1.083       .  S
C2373      C2374   1.407       .  A
C2374      F2375   1.357       .  S
C2379      C2380   1.402       .  A
C2379      C2384   1.401       .  A
C2379      H2386   1.083       .  S
C2380      C2381   1.404       .  A
C2381      C2382   1.398       .  A
C2381      F2388   1.355       .  S
C2382      C2383   1.406       .  A
C2382      H2387   1.083       .  S
C2383      C2384   1.413       .  A
C2384      F2385   1.357       .  S
C2389      C2390   1.414       .  A
C2389      C2394   1.399       .  A
C2389      H2396   1.083       .  S
C2390      C2391   1.410       .  A
C2391      C2392   1.413       .  A
C2391      F2398   1.357       .  S
C2392      C2393   1.414       .  A
C2392      H2397   1.083       .  S
C2393      C2394   1.406       .  A
C2394      F2395   1.358       .  S
C2399      C2400   1.410       .  A
C2399      C2404   1.401       .  A
C2399      H2406   1.083       .  S
C2400      C2401   1.409       .  A
C2401      C2402   1.404       .  A
C2401      F2408   1.357       .  S
C2402      C2403   1.407       .  A
C2402      H2407   1.083       .  S
C2403      C2404   1.403       .  A
C2404      F2405   1.357       .  S
C2409      C2410   1.409       .  A
C2409      C2414   1.410   1_545  A
C2409      H2416   1.083       .  S
C2410      C2411   1.410       .  A
C2411      C2412   1.407   1_545  A
C2411      F2418   1.357       .  S
C2412      C2413   1.408       .  A
C2412      H2417   1.083       .  S
C2413      C2414   1.411       .  A
C2414      F2415   1.357       .  S
C2419      C2420   1.405       .  A
C2419      C2424   1.399       .  A
C2419      H2426   1.083       .  S
C2420      C2421   1.408       .  A
C2421      C2422   1.395       .  A
C2421      F2428   1.357       .  S
C2422      C2423   1.403       .  A
C2422      H2427   1.084       .  S
C2423      C2424   1.405       .  A
C2424      F2425   1.357       .  S
C2429      C2430   1.420       .  A
C2429      C2434   1.419       .  A
C2429      H2436   1.083       .  S
C2430      C2431   1.407       .  A
C2431      C2432   1.407       .  A
C2431      F2438   1.357       .  S
C2432      C2433   1.417       .  A
C2432      H2437   1.081       .  S
C2433      C2434   1.409       .  A
C2434      F2435   1.357       .  S
C2439      C2440   1.405       .  A
C2439      C2444   1.397       .  A
C2439      H2446   1.083       .  S
C2440      C2441   1.415       .  A
C2441      C2442   1.400       .  A
C2441      F2448   1.357       .  S
C2442      C2443   1.399       .  A
C2442      H2447   1.083       .  S
C2443      C2444   1.405       .  A
C2444      F2445   1.357       .  S
C2449      C2450   1.408       .  A
C2449      C2454   1.410       .  A
C2449      H2456   1.083       .  S
C2450      C2451   1.406       .  A
C2451      C2452   1.406       .  A
C2451      F2458   1.357       .  S
C2452      C2453   1.406       .  A
C2452      H2457   1.082       .  S
C2453      C2454   1.409       .  A
C2454      F2455   1.357       .  S
C2459      C2460   1.401       .  A
C2459      C2464   1.398       .  A
C2459      H2466   1.084       .  S
C2460      C2461   1.408       .  A
C2461      C2462   1.402       .  A
C2461      F2468   1.358       .  S
C2462      C2463   1.406       .  A
C2462      H2467   1.083       .  S
C2463      C2464   1.413       .  A
C2464      F2465   1.358       .  S
C2469      C2470   1.399       .  A
C2469      C2474   1.398       .  A
C2469      H2476   1.084       .  S
C2470      C2471   1.408       .  A
C2471      C2472   1.402       .  A
C2471      F2478   1.358       .  S
C2472      C2473   1.405       .  A
C2472      H2477   1.083       .  S
C2473      C2474   1.413       .  A
C2474      F2475   1.358       .  S
C2479      C2480   1.409       .  A
C2479      C2484   1.409   1_565  A
C2479      H2486   1.083       .  S
C2480      C2481   1.409       .  A
C2481      C2482   1.406   1_565  A
C2481      F2488   1.357       .  S
C2482      C2483   1.410       .  A
C2482      H2487   1.083       .  S
C2483      C2484   1.411       .  A
C2484      F2485   1.357       .  S
C2489      C2490   1.406       .  A
C2489      C2494   1.402       .  A
C2489      H2496   1.083       .  S
C2490      C2491   1.412       .  A
C2491      C2492   1.398       .  A
C2491      F2498   1.358       .  S
C2492      C2493   1.401       .  A
C2492      H2497   1.084       .  S
C2493      C2494   1.407       .  A
C2494      F2495   1.358       .  S
C2499      C2500   1.409       .  A
C2499      C2504   1.397       .  A
C2499      H2506   1.084       .  S
C2500      C2501   1.400       .  A
C2501      C2502   1.397       .  A
C2501      F2508   1.358       .  S
C2502      C2503   1.407       .  A
C2502      H2507   1.084       .  S
C2503      C2504   1.402       .  A
C2504      F2505   1.357       .  S
C2509      C2510   1.406       .  A
C2509      C2514   1.398       .  A
C2509      H2516   1.083       .  S
C2510      C2511   1.410       .  A
C2511      C2512   1.397       .  A
C2511      F2518   1.357       .  S
C2512      C2513   1.402       .  A
C2512      H2517   1.084       .  S
C2513      C2514   1.404       .  A
C2519      C2520   1.397       .  A
C2519      C2524   1.392       .  A
C2519      H2526   1.084       .  S
C2520      C2521   1.409       .  A
C2521      C2522   1.404       .  A
C2521      F2528   1.358       .  S
C2522      C2523   1.406       .  A
C2522      H2527   1.083       .  S
C2523      C2524   1.410       .  A
C2524      F2525   1.355       .  S
C2529      C2530   1.408       .  A
C2529      C2534   1.410   1_556  A
C2529      H2536   1.083       .  S
C2531      C2532   1.409       .  A
C2531      F2538   1.357       .  S
C2532      C2533   1.409       .  A
C2532      H2537   1.083       .  S
C2534      F2535   1.357       .  S
C2539      C2540   1.408       .  A
C2539      C2544   1.403       .  A
C2539      H2546   1.083       .  S
C2540      C2541   1.404       .  A
C2541      C2542   1.395       .  A
C2541      F2548   1.358       .  S
C2542      C2543   1.402       .  A
C2542      H2547   1.083       .  S
C2543      C2544   1.404       .  A
C2544      F2545   1.357       .  S
C2549      C2550   1.414       .  A
C2549      C2554   1.405       .  A
C2549      H2556   1.083       .  S
C2550      C2551   1.405       .  A
C2551      C2552   1.398       .  A
C2551      F2558   1.357       .  S
C2552      C2553   1.410       .  A
C2552      H2557   1.083       .  S
C2553      C2554   1.403       .  A
C2554      F2555   1.357       .  S
C2559      C2560   1.405       .  A
C2559      C2564   1.403       .  A
C2559      H2566   1.083       .  S
C2560      C2561   1.413       .  A
C2561      C2562   1.396       .  A
C2561      F2568   1.358       .  S
C2562      C2563   1.399       .  A
C2562      H2567   1.084       .  S
C2563      C2564   1.408       .  A
C2564      F2565   1.358       .  S
C2569      C2570   1.408       .  A
C2569      C2574   1.406   1_545  A
C2569      H2576   1.083       .  S
C2570      C2571   1.410       .  A
C2571      C2572   1.405   1_545  A
C2571      F2578   1.357       .  S
C2572      C2573   1.407       .  A
C2572      H2577   1.083       .  S
C2573      C2574   1.410       .  A
C2574      F2575   1.357       .  S
C2579      C2580   1.408       .  A
C2579      C2584   1.404       .  A
C2579      H2586   1.083       .  S
C2580      C2581   1.401       .  A
C2581      C2582   1.395       .  A
C2581      F2588   1.358       .  S
C2582      C2583   1.405       .  A
C2582      H2587   1.080       .  S
C2583      C2584   1.403       .  A
C2584      F2585   1.357       .  S
C2589      C2590   1.409       .  A
C2589      C2594   1.394       .  A
C2589      H2596   1.083       .  S
C2590      C2591   1.405       .  A
C2591      C2592   1.399       .  A
C2591      F2598   1.357       .  S
C2592      C2593   1.409       .  A
C2592      H2597   1.083       .  S
C2593      C2594   1.403       .  A
C2594      F2595   1.357       .  S
C2599      C2600   1.409       .  A
C2599      C2604   1.409       .  A
C2599      H2606   1.083       .  S
C2600      C2601   1.410       .  A
C2601      C2602   1.416       .  A
C2601      F2608   1.357       .  S
C2602      C2603   1.414       .  A
C2602      H2607   1.083       .  S
C2603      C2604   1.412       .  A
C2604      F2605   1.357       .  S
C2609      C2610   1.400       .  A
C2609      C2614   1.398       .  A
C2610      C2611   1.404       .  A
C2611      C2612   1.393       .  A
C2611      F2618   1.356       .  S
C2612      C2613   1.403       .  A
C2612      H2617   1.083       .  S
C2613      C2614   1.411       .  A
C2619      C2620   1.406       .  A
C2619      C2624   1.404       .  A
C2619      H2626   1.084       .  S
C2620      C2621   1.408       .  A
C2621      C2622   1.409       .  A
C2621      F2628   1.357       .  S
C2622      C2623   1.407       .  A
C2622      H2627   1.083       .  S
C2623      C2624   1.407       .  A
C2624      F2625   1.357       .  S
C2629      C2630   1.410       .  A
C2629      C2634   1.402       .  A
C2629      H2636   1.083       .  S
C2630      C2631   1.409       .  A
C2631      C2632   1.396       .  A
C2631      F2638   1.358       .  S
C2632      C2633   1.403       .  A
C2633      C2634   1.403       .  A
C2634      F2635   1.356       .  S
C2639      C2640   1.402       .  A
C2639      C2644   1.398       .  A
C2639      H2646   1.084       .  S
C2640      C2641   1.405       .  A
C2641      C2642   1.397       .  A
C2641      F2648   1.358       .  S
C2642      C2643   1.405       .  A
C2642      H2647   1.083       .  S
C2643      C2644   1.410       .  A
C2644      F2645   1.358       .  S
C2649      C2650   1.403       .  A
C2649      C2654   1.393       .  A
C2649      H2656   1.084       .  S
C2650      C2651   1.402       .  A
C2651      C2652   1.398       .  A
C2651      F2658   1.356       .  S
C2652      C2653   1.404       .  A
C2652      H2657   1.084       .  S
C2653      C2654   1.402       .  A
C2654      F2655   1.358       .  S
C2659      C2660   1.393       .  A
C2659      C2664   1.399       .  A
C2659      H2666   1.083       .  S
C2661      C2662   1.404       .  A
C2661      F2668   1.357       .  S
C2662      C2663   1.411       .  A
C2662      H2667   1.083       .  S
C2664      F2665   1.350       .  S
C2669      C2670   1.404       .  A
C2669      C2674   1.407       .  A
C2669      H2676   1.083       .  S
C2670      C2671   1.409       .  A
C2671      C2672   1.404       .  A
C2671      F2678   1.358       .  S
C2672      C2673   1.403       .  A
C2672      H2677   1.083       .  S
C2673      C2674   1.408       .  A
C2674      F2675   1.357       .  S
C2679      C2680   1.414       .  A
C2679      C2684   1.400       .  A
C2680      C2681   1.392       .  A
C2681      C2682   1.387       .  A
C2681      F2688   1.358       .  S
C2682      C2683   1.415       .  A
C2682      H2687   1.083       .  S
C2683      C2684   1.399       .  A
C2684      F2685   1.357       .  S
C2689      C2690   1.412       .  A
C2689      C2694   1.405       .  A
C2689      H2696   1.083       .  S
C2690      C2691   1.397       .  A
C2691      C2692   1.387       .  A
C2691      F2698   1.358       .  S
C2692      C2693   1.410       .  A
C2692      H2697   1.084       .  S
C2693      C2694   1.401       .  A
C2694      F2695   1.356       .  S
C2699      C2700   1.420       .  A
C2699      C2704   1.386       .  A
C2699      H2706   1.083       .  S
C2700      C2701   1.400       .  A
C2701      C2702   1.407       .  A
C2701      F2708   1.357       .  S
C2702      C2703   1.416       .  A
C2702      H2707   1.082       .  S
C2703      C2704   1.390       .  A
C2704      F2705   1.359       .  S
C2709      C2710   1.397       .  A
C2709      C2714   1.386   1_455  A
C2709      H2716   1.084       .  S
C2710      C2711   1.405       .  A
C2711      C2712   1.397       .  A
C2711      F2718   1.357       .  S
C2712      C2713   1.401   1_455  A
C2712      H2717   1.083       .  S
C2713      C2714   1.407       .  A
C2714      F2715   1.358       .  S
C2719      C2720   1.405       .  A
C2719      C2724   1.407       .  A
C2719      H2726   1.083       .  S
C2720      C2721   1.413       .  A
C2721      C2722   1.410       .  A
C2721      F2728   1.357       .  S
C2722      C2723   1.406       .  A
C2722      H2727   1.083       .  S
C2723      C2724   1.414       .  A
C2724      F2725   1.358       .  S
C2729      C2730   1.412       .  A
C2729      C2734   1.397       .  A
C2729      H2736   1.083       .  S
C2730      C2731   1.406       .  A
C2731      C2732   1.404       .  A
C2731      F2738   1.357       .  S
C2732      C2733   1.411       .  A
C2732      H2737   1.083       .  S
C2733      C2734   1.402       .  A
C2734      F2735   1.358       .  S
C2739      C2740   1.419       .  A
C2739      C2744   1.430   1_565  A
C2739      H2746   1.082       .  S
C2740      C2741   1.413       .  A
C2741      C2742   1.401   1_565  A
C2741      F2748   1.358       .  S
C2742      C2743   1.413       .  A
C2742      H2747   1.083       .  S
C2743      C2744   1.417       .  A
C2744      F2745   1.356       .  S
C2749      C2750   1.398       .  A
C2749      C2754   1.399       .  A
C2749      H2756   1.083       .  S
C2750      C2751   1.424       .  A
C2751      C2752   1.382       .  A
C2751      F2758   1.359       .  S
C2752      C2753   1.385       .  A
C2752      H2757   1.085       .  S
C2753      C2754   1.410       .  A
C2754      F2755   1.353       .  S
C2759      C2760   1.406       .  A
C2759      C2764   1.403       .  A
C2759      H2766   1.082       .  S
C2760      C2761   1.399       .  A
C2761      C2762   1.384   1_455  A
C2761      F2768   1.358       .  S
C2762      C2763   1.405       .  A
C2762      H2767   1.084       .  S
C2763      C2764   1.404   1_655  A
C2764      F2765   1.357       .  S
C2769      C2770   1.403       .  A
C2769      C2774   1.398       .  A
C2769      H2776   1.083       .  S
C2770      C2771   1.412       .  A
C2771      C2772   1.395       .  A
C2771      F2778   1.358       .  S
C2772      C2773   1.401       .  A
C2772      H2777   1.083       .  S
C2773      C2774   1.409       .  A
C2774      F2775   1.357       .  S
C2779      C2780   1.400       .  A
C2779      C2784   1.397       .  A
C2779      H2786   1.083       .  S
C2780      C2781   1.402       .  A
C2781      C2782   1.392       .  A
C2781      F2788   1.358       .  S
C2782      C2783   1.404       .  A
C2782      H2787   1.083       .  S
C2783      C2784   1.410       .  A
C2784      F2785   1.358       .  S
C2789      C2790   1.418       .  A
C2789      C2794   1.388       .  A
C2789      H2796   1.082       .  S
C2790      C2791   1.398       .  A
C2791      C2792   1.407       .  A
C2791      F2798   1.357       .  S
C2792      C2793   1.420       .  A
C2792      H2797   1.084       .  S
C2793      C2794   1.390       .  A
C2794      F2795   1.358       .  S
C2799      C2800   1.405       .  A
C2799      C2804   1.404       .  A
C2799      H2806   1.083       .  S
C2800      C2801   1.411       .  A
C2801      C2802   1.405       .  A
C2801      F2808   1.357       .  S
C2802      C2803   1.403       .  A
C2802      H2807   1.084       .  S
C2803      C2804   1.409       .  A
C2804      F2805   1.358       .  S
C2809      C2810   1.407       .  A
C2809      C2814   1.403       .  A
C2809      H2816   1.080   1_556  S
C2810      C2811   1.403       .  A
C2811      C2812   1.405       .  A
C2811      F2818   1.357       .  S
C2812      C2813   1.412       .  A
C2812      H2817   1.083       .  S
C2813      C2814   1.407       .  A
C2814      F2815   1.357   1_556  S
C2819      C2820   1.408       .  A
C2819      C2824   1.406       .  A
C2819      H2826   1.084       .  S
C2820      C2821   1.402       .  A
C2821      C2822   1.402       .  A
C2821      F2828   1.358       .  S
C2822      C2823   1.412       .  A
C2822      H2827   1.084       .  S
C2823      C2824   1.406       .  A
C2824      F2825   1.357       .  S
C2829      C2830   1.399       .  A
C2829      C2834   1.393       .  A
C2829      H2836   1.083       .  S
C2830      C2831   1.413       .  A
C2831      C2832   1.385       .  A
C2832      C2833   1.391       .  A
C2832      H2837   1.084       .  S
C2833      C2834   1.406       .  A
C2834      F2835   1.357       .  S
C2839      C2840   1.402       .  A
C2839      C2844   1.407       .  A
C2839      H2846   1.083       .  S
C2840      C2841   1.419       .  A
C2841      C2842   1.391       .  A
C2841      F2848   1.358       .  S
C2842      C2843   1.394       .  A
C2842      H2847   1.084       .  S
C2843      C2844   1.411       .  A
C2844      F2845   1.355       .  S
C2849      C2850   1.402       .  A
C2849      C2854   1.413       .  A
C2849      H2856   1.083       .  S
C2851      C2852   1.404       .  A
C2851      F2858   1.346       .  S
C2852      C2853   1.396       .  A
C2852      H2857   1.083       .  S
C2854      F2855   1.357       .  S
C2859      C2860   1.407       .  A
C2859      C2864   1.407       .  A
C2859      H2866   1.084       .  S
C2860      C2861   1.407       .  A
C2861      C2862   1.407       .  A
C2861      F2868   1.357       .  S
C2862      C2863   1.406       .  A
C2862      H2867   1.082       .  S
C2863      C2864   1.408       .  A
C2864      F2865   1.358       .  S
C2869      C2870   1.405       .  A
C2869      C2874   1.399       .  A
C2869      H2876   1.083       .  S
C2870      C2871   1.411       .  A
C2871      C2872   1.396       .  A
C2871      F2878   1.358       .  S
C2872      C2873   1.400       .  A
C2872      H2877   1.084       .  S
C2873      C2874   1.406       .  A
C2874      F2875   1.358       .  S
C2879      C2880   1.406       .  A
C2879      C2884   1.399       .  A
C2879      H2886   1.084       .  S
C2880      C2881   1.401       .  A
C2881      C2882   1.395       .  A
C2881      F2888   1.358       .  S
C2882      C2883   1.407       .  A
C2882      H2887   1.084       .  S
C2883      C2884   1.404       .  A
C2884      F2885   1.357       .  S
C2889      C2890   1.407       .  A
C2889      C2894   1.387       .  A
C2889      H2896   1.082       .  S
C2890      C2891   1.404       .  A
C2891      C2892   1.407       .  A
C2891      F2898   1.356       .  S
C2892      C2893   1.412       .  A
C2892      H2897   1.083       .  S
C2893      C2894   1.404       .  A
C2894      F2895   1.358       .  S
C2899      C2900   1.403       .  A
C2899      C2904   1.398       .  A
C2899      H2906   1.084       .  S
C2900      C2901   1.400       .  A
C2901      C2902   1.391       .  A
C2902      C2903   1.406       .  A
C2902      H2907   1.083       .  S
C2903      C2904   1.407       .  A
C2904      F2905   1.357       .  S
C2909      C2910   1.406       .  A
C2909      C2914   1.409       .  A
C2909      H2916   1.083       .  S
C2910      C2911   1.407       .  A
C2911      C2912   1.405       .  A
C2911      F2918   1.357       .  S
C2912      C2913   1.405       .  A
C2912      H2917   1.083       .  S
C2913      C2914   1.408       .  A
C2914      F2915   1.357       .  S
C2919      C2920   1.407       .  A
C2919      C2924   1.396       .  A
C2919      H2926   1.083       .  S
C2920      C2921   1.406       .  A
C2921      C2922   1.401       .  A
C2921      F2928   1.357       .  S
C2922      C2923   1.407       .  A
C2922      H2927   1.084       .  S
C2923      C2924   1.401       .  A
C2924      F2925   1.358       .  S
C2929      C2930   1.410       .  A
C2929      C2934   1.401       .  A
C2929      H2936   1.084       .  S
C2930      C2931   1.400       .  A
C2931      C2932   1.399       .  A
C2931      F2938   1.357       .  S
C2932      C2933   1.409       .  A
C2932      H2937   1.083       .  S
C2933      C2934   1.403       .  A
C2939      C2940   1.408       .  A
C2939      C2944   1.408       .  A
C2939      H2946   1.083       .  S
C2940      C2941   1.409       .  A
C2941      C2942   1.406       .  A
C2941      F2948   1.357       .  S
C2942      C2943   1.409       .  A
C2942      H2947   1.083       .  S
C2943      C2944   1.411       .  A
C2944      F2945   1.357       .  S
C2949      C2950   1.407       .  A
C2949      C2954   1.406       .  A
C2949      H2956   1.084       .  S
C2950      C2951   1.409       .  A
C2951      C2952   1.412       .  A
C2951      F2958   1.356       .  S
C2952      C2953   1.408       .  A
C2952      H2957   1.083       .  S
C2953      C2954   1.408       .  A
C2954      F2955   1.358       .  S
C2959      C2960   1.404       .  A
C2959      C2964   1.398       .  A
C2959      H2966   1.083       .  S
C2960      C2961   1.411       .  A
C2961      C2962   1.393       .  A
C2961      F2968   1.358   1_455  S
C2962      C2963   1.398       .  A
C2962      H2967   1.084       .  S
C2963      C2964   1.405       .  A
C2964      F2965   1.358       .  S
C2969      C2970   1.407       .  A
C2969      C2974   1.398       .  A
C2969      H2976   1.084       .  S
C2970      C2971   1.401       .  A
C2971      C2972   1.397   1_655  A
C2971      F2978   1.358       .  S
C2972      C2973   1.408       .  A
C2972      H2977   1.083       .  S
C2973      C2974   1.404   1_455  A
C2974      F2975   1.357       .  S
C2979      C2980   1.413       .  A
C2979      C2984   1.411       .  A
C2979      H2986   1.083       .  S
C2980      C2981   1.410       .  A
C2981      C2982   1.413       .  A
C2981      F2988   1.357       .  S
C2982      C2983   1.410       .  A
C2982      H2987   1.083       .  S
C2983      C2984   1.407       .  A
C2984      F2985   1.357       .  S
C2989      C2990   1.399       .  A
C2989      C2994   1.390       .  A
C2989      H2996   1.084       .  S
C2990      C2991   1.409       .  A
C2991      C2992   1.392       .  A
C2991      F2998   1.358   1_455  S
C2992      C2993   1.396       .  A
C2992      H2997   1.084       .  S
C2993      C2994   1.407       .  A
C2994      F2995   1.359       .  S
C2999      C3000   1.406       .  A
C2999      C3004   1.401       .  A
C2999      H3006   1.084       .  S
C3000      C3001   1.402       .  A
C3001      C3002   1.396       .  A
C3001      F3008   1.358       .  S
C3002      C3003   1.407       .  A
C3002      H3007   1.083   1_655  S
C3003      C3004   1.407       .  A
C3004      F3005   1.357       .  S
C3009      C3010   1.399       .  A
C3009      C3014   1.382       .  A
C3009      H3016   1.083       .  S
C3010      C3011   1.411       .  A
C3011      C3012   1.404       .  A
C3011      F3018   1.357       .  S
C3012      C3013   1.406       .  A
C3012      H3017   1.083       .  S
C3013      C3014   1.409       .  A
C3014      F3015   1.355       .  S
C3019      C3020   1.409       .  A
C3019      C3024   1.406       .  A
C3019      H3026   1.083       .  S
C3020      C3021   1.412       .  A
C3021      C3022   1.408       .  A
C3021      F3028   1.357       .  S
C3022      C3023   1.408       .  A
C3022      H3027   1.083       .  S
C3023      C3024   1.409       .  A
C3024      F3025   1.357       .  S
C3029      C3030   1.403       .  A
C3029      C3034   1.394       .  A
C3029      H3036   1.083       .  S
C3030      C3031   1.414       .  A
C3031      C3032   1.402       .  A
C3032      C3033   1.399       .  A
C3032      H3037   1.083       .  S
C3033      C3034   1.405       .  A
C3034      F3035   1.357       .  S
C3039      C3040   1.401       .  A
C3039      C3044   1.404       .  A
C3039      H3046   1.083       .  S
C3040      C3041   1.406       .  A
C3041      C3042   1.400       .  A
C3041      F3048   1.357       .  S
C3042      C3043   1.407       .  A
C3042      H3047   1.083       .  S
C3043      C3044   1.414       .  A
C3044      F3045   1.357       .  S
C3049      C3050   1.406       .  A
C3049      C3054   1.404       .  A
C3049      H3056   1.084   1_556  S
C3050      C3051   1.406       .  A
C3051      C3052   1.405       .  A
C3051      F3058   1.357       .  S
C3052      C3053   1.404       .  A
C3052      H3057   1.083       .  S
C3053      C3054   1.406       .  A
C3054      F3055   1.358       .  S
C3059      C3060   1.400       .  A
C3059      C3064   1.402       .  A
C3059      H3066   1.083       .  S
C3060      C3061   1.413       .  A
C3061      C3062   1.399       .  A
C3061      F3068   1.358       .  S
C3062      C3063   1.402       .  A
C3062      H3067   1.083       .  S
C3063      C3064   1.415       .  A
C3064      F3065   1.357       .  S
C3069      C3070   1.407       .  A
C3069      C3074   1.410       .  A
C3069      H3076   1.083       .  S
C3070      C3071   1.408       .  A
C3071      C3072   1.406       .  A
C3071      F3078   1.358       .  S
C3072      C3073   1.406       .  A
C3072      H3077   1.083       .  S
C3073      C3074   1.408       .  A
C3079      C3080   1.401       .  A
C3079      C3084   1.394       .  A
C3079      H3086   1.084       .  S
C3080      C3081   1.399       .  A
C3081      C3082   1.393       .  A
C3081      F3088   1.358       .  S
C3082      C3083   1.406       .  A
C3082      H3087   1.084       .  S
C3083      C3084   1.404       .  A
C3084      F3085   1.357       .  S
C3089      C3090   1.409       .  A
C3089      C3094   1.407       .  A
C3089      H3096   1.083       .  S
C3090      C3091   1.407       .  A
C3091      C3092   1.407       .  A
C3091      F3098   1.357       .  S
C3092      C3093   1.412       .  A
C3092      H3097   1.083       .  S
C3093      C3094   1.410       .  A
C3094      F3095   1.357       .  S
C3099      C3100   1.405       .  A
C3099      C3104   1.397       .  A
C3099      H3106   1.083       .  S
C3100      C3101   1.404       .  A
C3101      C3102   1.394       .  A
C3101      F3108   1.358       .  S
C3102      C3103   1.404       .  A
C3102      H3107   1.082       .  S
C3103      C3104   1.405       .  A
C3104      F3105   1.358       .  S
C3109      C3110   1.402       .  A
C3109      C3114   1.399       .  A
C3109      H3116   1.083       .  S
C3110      C3111   1.418       .  A
C3111      C3112   1.404       .  A
C3111      F3118   1.356       .  S
C3112      C3113   1.400       .  A
C3112      H3117   1.083       .  S
C3113      C3114   1.411       .  A
C3114      F3115   1.357       .  S
C3119      C3120   1.405       .  A
C3119      C3124   1.405       .  A
C3119      H3126   1.083       .  S
C3120      C3121   1.412       .  A
C3121      C3122   1.407       .  A
C3121      F3128   1.357       .  S
C3122      C3123   1.405       .  A
C3122      H3127   1.083       .  S
C3123      C3124   1.412       .  A
C3124      F3125   1.358       .  S
C3129      C3130   1.419       .  A
C3129      C3134   1.385       .  A
C3129      H3136   1.083       .  S
C3130      C3131   1.401       .  A
C3131      C3132   1.405       .  A
C3131      F3138   1.357       .  S
C3132      C3133   1.415       .  A
C3132      H3137   1.084       .  S
C3133      C3134   1.390       .  A
C3134      F3135   1.359       .  S
C3139      C3140   1.407       .  A
C3139      C3144   1.400       .  A
C3139      H3146   1.084       .  S
C3140      C3141   1.403       .  A
C3141      C3142   1.397       .  A
C3141      F3148   1.358       .  S
C3142      C3143   1.408       .  A
C3142      H3147   1.083       .  S
C3143      C3144   1.407       .  A
C3144      F3145   1.357       .  S
C3149      C3150   1.396       .  A
C3149      C3154   1.389       .  A
C3149      H3156   1.084       .  S
C3150      C3151   1.416       .  A
C3151      C3152   1.408       .  A
C3151      F3158   1.357       .  S
C3152      C3153   1.402       .  A
C3152      H3157   1.083       .  S
C3153      C3154   1.413       .  A
C3154      F3155   1.354       .  S
C3159      C3160   1.403       .  A
C3159      C3164   1.398       .  A
C3159      H3166   1.083       .  S
C3160      C3161   1.408       .  A
C3161      C3162   1.397       .  A
C3161      F3168   1.357       .  S
C3162      C3163   1.402       .  A
C3162      H3167   1.083       .  S
C3163      C3164   1.407       .  A
C3164      F3165   1.358       .  S
C3169      C3170   1.408       .  A
C3169      C3174   1.411       .  A
C3169      H3176   1.083       .  S
C3170      C3171   1.408       .  A
C3171      C3172   1.404       .  A
C3171      F3178   1.358       .  S
C3172      C3173   1.405       .  A
C3172      H3177   1.082       .  S
C3173      C3174   1.408       .  A
C3174      F3175   1.357       .  S
C3179      C3180   1.409       .  A
C3179      C3184   1.397       .  A
C3179      H3186   1.083       .  S
C3180      C3181   1.406       .  A
C3181      C3182   1.402       .  A
C3181      F3188   1.357       .  S
C3182      C3183   1.407       .  A
C3182      H3187   1.084       .  S
C3183      C3184   1.401       .  A
C3184      F3185   1.358       .  S
C3189      C3190   1.405       .  A
C3189      C3194   1.400       .  A
C3189      H3196   1.084       .  S
C3190      C3191   1.402       .  A
C3191      C3192   1.397       .  A
C3192      C3193   1.407       .  A
C3192      H3197   1.083       .  S
C3193      C3194   1.407       .  A
C3194      F3195   1.357       .  S
C3199      C3204   1.420       .  A
C3199      H3206   1.083       .  S
C3200      C3201   1.413       .  A
C3201      C3202   1.412   1_556  A
C3201      F3208   1.357       .  S
C3202      H3207   1.083       .  S
C3203      C3204   1.410       .  A
C3204      F3205   1.357       .  S
C3209      C3210   1.407       .  A
C3209      C3214   1.393       .  A
C3209      H3216   1.083       .  S
C3210      C3211   1.409       .  A
C3211      C3212   1.400       .  A
C3211      F3218   1.357       .  S
C3212      C3213   1.403       .  A
C3212      H3217   1.083       .  S
C3213      C3214   1.401       .  A
C3214      F3215   1.358       .  S
C3219      C3220   1.403       .  A
C3219      C3224   1.395       .  A
C3219      H3226   1.081       .  S
C3220      C3221   1.405       .  A
C3221      C3222   1.400       .  A
C3221      F3228   1.358       .  S
C3222      C3223   1.406       .  A
C3222      H3227   1.083       .  S
C3223      C3224   1.406       .  A
C3224      F3225   1.358       .  S
C3229      C3230   1.407       .  A
C3229      C3234   1.400       .  A
C3229      H3236   1.084       .  S
C3230      C3231   1.401       .  A
C3231      C3232   1.398       .  A
C3231      F3238   1.358       .  S
C3232      C3233   1.409       .  A
C3232      H3237   1.083       .  S
C3233      C3234   1.405       .  A
C3234      F3235   1.357       .  S
C3239      C3240   1.409       .  A
C3239      C3244   1.399       .  A
C3239      H3246   1.083       .  S
C3240      C3241   1.407       .  A
C3241      C3242   1.400       .  A
C3241      F3248   1.357       .  S
C3242      C3243   1.407       .  A
C3242      H3247   1.084       .  S
C3243      C3244   1.403       .  A
C3249      C3250   1.407       .  A
C3249      C3254   1.409       .  A
C3249      H3256   1.083       .  S
C3250      C3251   1.406       .  A
C3251      C3252   1.404       .  A
C3251      F3258   1.358       .  S
C3252      C3253   1.405       .  A
C3252      H3257   1.082       .  S
C3253      C3254   1.408       .  A
C3254      F3255   1.357       .  S
C3259      C3260   1.403       .  A
C3259      C3264   1.392       .  A
C3259      H3266   1.083       .  S
C3260      C3261   1.410       .  A
C3261      C3262   1.398       .  A
C3261      F3268   1.358       .  S
C3262      C3263   1.400       .  A
C3262      H3267   1.083       .  S
C3263      C3264   1.403       .  A
C3264      F3265   1.356       .  S
C3269      C3270   1.415       .  A
C3269      C3274   1.412       .  A
C3269      H3276   1.083       .  S
C3270      C3271   1.403       .  A
C3271      C3272   1.391       .  A
C3271      F3278   1.358       .  S
C3272      C3273   1.409       .  A
C3272      H3277   1.081       .  S
C3273      C3274   1.404       .  A
C3274      F3275   1.356       .  S
C3279      C3280   1.407       .  A
C3279      C3284   1.408       .  A
C3279      H3286   1.083       .  S
C3280      C3281   1.406       .  A
C3281      C3282   1.403       .  A
C3281      F3288   1.358       .  S
C3282      C3283   1.405       .  A
C3282      H3287   1.084       .  S
C3283      C3284   1.407       .  A
C3284      F3285   1.357       .  S
C3289      C3290   1.408       .  A
C3289      C3294   1.394       .  A
C3289      H3296   1.084       .  S
C3290      C3291   1.398       .  A
C3291      C3292   1.392       .  A
C3291      F3298   1.358       .  S
C3292      C3293   1.406       .  A
C3292      H3297   1.084       .  S
C3293      C3294   1.401       .  A
C3294      F3295   1.358       .  S
C3299      C3300   1.407       .  A
C3299      C3304   1.396       .  A
C3299      H3306   1.083       .  S
C3300      C3301   1.408       .  A
C3301      C3302   1.398       .  A
C3301      F3308   1.357       .  S
C3302      C3303   1.405       .  A
C3302      H3307   1.084       .  S
C3303      C3304   1.403       .  A
C3309      C3310   1.413       .  A
C3309      C3314   1.411       .  A
C3309      H3316   1.083       .  S
C3310      C3311   1.412       .  A
C3311      C3312   1.410       .  A
C3311      F3318   1.357       .  S
C3312      C3313   1.409       .  A
C3312      H3317   1.083       .  S
C3313      C3314   1.408       .  A
C3314      F3315   1.357       .  S
C3319      C3320   1.410       .  A
C3319      C3324   1.392       .  A
C3319      H3326   1.084       .  S
C3320      C3321   1.405       .  A
C3321      C3322   1.398       .  A
C3321      F3328   1.357       .  S
C3322      C3323   1.403       .  A
C3322      H3327   1.084       .  S
C3323      C3324   1.396       .  A
C3324      F3325   1.358       .  S
