geometry optimzed in LAMMPS
_audit_creation_date              2020-12-01 
_audit_creation_method            'lammps2cif' 
_symmetry_space_group_name_H-M    'P1' 
_symmetry_Int_Tables_number       1 
_symmetry_cell_setting            triclinic 
loop_ 
_symmetry_equiv_pos_as_xyz 
  x,y,z 
_cell_length_a                    39.05939175 
_cell_length_b                    39.425452287533965 
_cell_length_c                    36.349101105337084 
_cell_angle_alpha                 89.87312478048185 
_cell_angle_beta                  89.8987506468668 
_cell_angle_gamma                 89.03328238486627 
loop_ 
_atom_site_label 
_atom_site_type_symbol 
_atom_site_fract_x 
_atom_site_fract_y 
_atom_site_fract_z 
_atom_site_charge 
O1          O  0.01509975  0.38878381  0.63343729    -0.86000
O2          O  0.44841239  0.41181327  0.59741351    -0.83000
C3          C  0.41714880  0.41070114  0.58948274     0.97500
O4          O  0.39502084  0.40348496  0.61348352    -0.83100
O5          O  0.40784861  0.33859654  0.62596130    -0.85700
C6          C  0.41705917  0.31033916  0.63794071     1.02000
O7          O  0.43937306  0.30878635  0.66334626    -0.78500
O8          O  0.99769417  0.33684473  0.63774398    -0.78700
C9          C  0.01638543  0.35838335  0.62226622     1.01900
O10         O  0.48239739  0.42743970  0.69727897    -0.86000
O11         O  0.42384617  0.44868933  0.65920708    -0.83100
C12         C  0.39653973  0.44422681  0.67740127     0.97500
O13         O  0.38989345  0.41559332  0.69063782    -0.83100
O14         O  0.39685665  0.34696888  0.70536363    -0.85700
C15         C  0.41716161  0.34342276  0.73248480     1.02000
O16         O  0.44854411  0.34953281  0.72847505    -0.78500
O17         O  0.01106983  0.37617535  0.70490001    -0.78700
C18         C  0.00910612  0.40779764  0.71223094     1.01900
Cr19       Cr  0.46461056  0.41843054  0.64776203     1.93700
Cr20       Cr  0.40068804  0.37621059  0.65953392     1.93200
Cr21       Cr  0.47101721  0.34691261  0.68011195     1.39100
O22         O  0.44530926  0.38091051  0.66314502    -1.23700
O23         O  0.13320053  0.23216100  0.37822710    -0.86000
O24         O  0.13579722  0.29192134  0.34057152    -0.83000
C25         C  0.13010769  0.32251511  0.33204658     0.97500
O26         O  0.12721237  0.34487201  0.35702781    -0.83100
O27         O  0.06474582  0.33313695  0.38215532    -0.85700
C28         C  0.03956892  0.31911140  0.39638908     1.02000
O29         O  0.04375979  0.29585015  0.42022420    -0.78500
O30         O  0.07879227  0.24297628  0.38456087    -0.78700
C31         C  0.10280879  0.22748112  0.36802504     1.01900
O32         O  0.17033468  0.26210314  0.43692454    -0.86000
O33         O  0.18065668  0.31966684  0.39308547    -0.83100
C34         C  0.17788466  0.34525619  0.41380218     0.92700
O35         O  0.15129931  0.34983977  0.43270685    -0.83100
O36         O  0.08511335  0.34203297  0.45858652    -0.85700
C37         C  0.08405773  0.32092285  0.48510587     1.02000
O38         O  0.09136097  0.29001466  0.47970732    -0.78500
O39         O  0.12340441  0.23413595  0.44929957    -0.78700
C40         C  0.15500403  0.23965963  0.45525679     1.01900
Cr41       Cr  0.15263304  0.27768382  0.38907890     1.93700
Cr42       Cr  0.10773337  0.33917141  0.40823602     1.93200
Cr43       Cr  0.08639564  0.26743845  0.43170677     1.39100
O44         O  0.11567900  0.29497284  0.41031264    -1.23700
O45         O  0.47523071  0.11034961  0.12885753    -0.86000
O46         O  0.03761199  0.09257263  0.09668436    -0.83000
C47         C  0.06906004  0.09288055  0.08950344     0.97500
O48         O  0.09104521  0.09555738  0.11500240    -0.83100
O49         O  0.08327228  0.16106346  0.13071686    -0.85700
C50         C  0.07180380  0.18901202  0.14140225     1.02000
O51         O  0.04694654  0.19044282  0.16409266    -0.78500
O52         O  0.49296318  0.16220275  0.13092865    -0.78700
C53         C  0.47447924  0.14018761  0.11616609     1.01900
O54         O  0.49696915  0.07482000  0.19373387    -0.86000
O55         O  0.06002222  0.05110445  0.15668993    -0.83100
C56         C  0.08529076  0.05347161  0.17835199     0.97500
O57         O  0.09148593  0.08123643  0.19345072    -0.83100
O58         O  0.08789467  0.14962431  0.20963875    -0.85700
C59         C  0.06595649  0.15500497  0.23504868     1.02000
O60         O  0.03480790  0.14999811  0.22898521    -0.78500
O61         O  0.47441595  0.12616023  0.19959381    -0.78700
C62         C  0.47618767  0.09500557  0.20927660     1.01900
Cr63       Cr  0.02024633  0.08261399  0.14586700     1.93700
Cr64       Cr  0.08506221  0.12170595  0.16267078     1.93200
Cr65       Cr  0.01423094  0.15291178  0.17993575     1.39100
O66         O  0.03996007  0.11900592  0.16343495    -1.23700
O67         O  0.34754894  0.27176457  0.87738121    -0.86000
O68         O  0.33835259  0.21028220  0.84474688    -0.83000
C69         C  0.33940239  0.17886107  0.83873346     0.97500
O70         O  0.34042941  0.15790637  0.86515542    -0.83100
O71         O  0.40526110  0.16513471  0.88263833    -0.85700
C72         C  0.43315592  0.17794312  0.89099547     1.02000
O73         O  0.43384454  0.20201368  0.91436373    -0.78500
O74         O  0.40104724  0.25676837  0.88279027    -0.78700
C75         C  0.37825236  0.27420403  0.86692141     1.01900
O76         O  0.31077733  0.24829463  0.94013112    -0.86000
O77         O  0.29351675  0.18963574  0.90267619    -0.83100
C78         C  0.29544379  0.16462044  0.92457974     0.97500
O79         O  0.32269405  0.15849486  0.94192453    -0.83100
O80         O  0.39216369  0.16072350  0.96057323    -0.85700
C81         C  0.39810619  0.18222997  0.98567442     1.02000
O82         O  0.39222308  0.21323445  0.97988892    -0.78500
O83         O  0.36134565  0.27027972  0.95107453    -0.78700
C84         C  0.32908413  0.26907790  0.95728354     1.01900
Cr85       Cr  0.32502380  0.22856870  0.89299840     1.93700
Cr86       Cr  0.36489373  0.16406423  0.91325070     1.93200
Cr87       Cr  0.39462088  0.23399754  0.93072867     1.39100
O88         O  0.36132053  0.20885367  0.91329536    -1.23700
O89         O  0.10263200  0.48421994  0.89344006    -0.86000
O90         O  0.08949807  0.03902037  0.92658416    -0.83000
C91         C  0.08975594  0.06980848  0.93549809     0.97500
O92         O  0.09187197  0.09264254  0.91097797    -0.83100
O93         O  0.15749180  0.08615494  0.89481080    -0.85700
C94         C  0.18623211  0.07688860  0.88343553     1.02000
O95         O  0.18824871  0.05429239  0.85842226    -0.78500
O96         O  0.15638181  0.49761332  0.88946481    -0.78700
C97         C  0.13322284  0.48017985  0.90409381     1.01900
O98         O  0.06688054  0.51176903  0.83140357    -0.86000
O99         O  0.04692120  0.06378472  0.86794415    -0.83100
C100        C  0.04917820  0.09025565  0.84822233     0.97500
O101        O  0.07701479  0.09728089  0.83302978    -0.83100
O102        O  0.14591847  0.09582072  0.81617403    -0.85700
C103        C  0.15084746  0.07579714  0.78915632     1.02000
O104        O  0.14690669  0.04438841  0.79326777    -0.78500
O105        O  0.11678467  0.48659146  0.82206498    -0.78700
C106        C  0.08455219  0.48878133  0.81603244     1.01900
Cr107      Cr  0.07988885  0.02432060  0.87621950     1.93700
Cr108      Cr  0.11805214  0.08976270  0.86302440     1.93200
Cr109      Cr  0.15092543  0.02152546  0.84114857     1.39100
O110        O  0.11612912  0.04530611  0.85944674    -1.23700
O111        O  0.22564412  0.14586273  0.64524712    -0.86000
O112        O  0.28692679  0.15336372  0.68013648    -0.83000
C113        C  0.31844093  0.15179372  0.68720392     0.97500
O114        O  0.34055123  0.14953389  0.66164678    -0.83100
O115        O  0.33459455  0.08556217  0.64160313    -0.85700
C116        C  0.31969918  0.05841412  0.63530074     1.02000
O117        O  0.29459294  0.05797540  0.61299355    -0.78500
O118        O  0.23960832  0.09245940  0.64259111    -0.78700
C119        C  0.22236735  0.11606403  0.65712701     1.01900
O120        O  0.25327158  0.18013271  0.58319320    -0.86000
O121        O  0.31006519  0.19714474  0.62373913    -0.83100
C122        C  0.33529170  0.19588332  0.60195863     0.97500
O123        O  0.34204726  0.16897837  0.58478335    -0.83100
O124        O  0.33914026  0.10121264  0.56425908    -0.85700
C125        C  0.31721529  0.09500897  0.53954883     1.02000
O126        O  0.28572691  0.09817203  0.54634269    -0.78500
O127        O  0.22904835  0.13100609  0.57282509    -0.78700
C128        C  0.23248165  0.16250627  0.56521048     1.01900
Cr129      Cr  0.27039196  0.16650747  0.63139384     1.93700
Cr130      Cr  0.33542960  0.12650568  0.61247564     1.93200
Cr131      Cr  0.26402037  0.09733391  0.59503267     1.39100
O132        O  0.29012207  0.13002705  0.61221255    -1.23700
O133        O  0.37722688  0.02589498  0.38805683    -0.86000
O134        O  0.38263922  0.46827485  0.42905438    -0.83000
C135        C  0.38132742  0.43800582  0.43983002     0.97500
O136        O  0.37695995  0.41412765  0.41716669    -0.83100
O137        O  0.31256389  0.42343644  0.39486041    -0.85700
C138        C  0.28603898  0.43525925  0.38015531     1.02000
O139        O  0.28830653  0.45668632  0.35416325    -0.78500
O140        O  0.32356075  0.01221400  0.38610968    -0.78700
C141        C  0.34710027  0.02922218  0.40037776     1.01900
O142        O  0.41280844  0.99406507  0.32814872    -0.86000
O143        O  0.42704278  0.43804881  0.37691136    -0.83100
C144        C  0.42488895  0.41029660  0.35975193     0.97500
O145        O  0.39816193  0.40382814  0.34201995    -0.83100
O146        O  0.33020366  0.40907853  0.31923381    -0.85700
C147        C  0.32692138  0.42759336  0.29074119     1.02000
O148        O  0.33335670  0.45887654  0.29215979    -0.78500
O149        O  0.36345025  0.01973608  0.31783538    -0.78700
C150        C  0.39555263  0.01665834  0.31150842     1.01900
Cr151      Cr  0.39664572  0.47946694  0.37897597     1.93700
Cr152      Cr  0.35481931  0.41587080  0.36734218     1.93200
Cr153      Cr  0.32875819  0.48505835  0.33830271     1.39100
O154        O  0.36025069  0.45983943  0.36079179    -1.23700
O155        O  0.23040361  0.35599678  0.16789800    -0.86000
O156        O  0.16764933  0.32848590  0.16524036    -0.83000
C157        C  0.14702337  0.35026024  0.17866275     0.97500
O158        O  0.13805551  0.37633673  0.16055722    -0.83100
O159        O  0.14539021  0.42928356  0.11153006    -0.85700
C160        C  0.16367022  0.44398836  0.13472159     1.02000
O161        O  0.19524630  0.43647711  0.13621656    -0.78500
O162        O  0.25349225  0.39523769  0.13423109    -0.78700
C163        C  0.25182096  0.37919138  0.16421392     1.01900
O164        O  0.24554376  0.33126484  0.09406845    -0.86000
O165        O  0.17950829  0.30570955  0.09201849    -0.83100
C166        C  0.14727556  0.30492115  0.09457696     0.97500
O167        O  0.13055478  0.33162261  0.10151009    -0.83100
O168        O  0.14767024  0.38350733  0.05168023    -0.85700
C169        C  0.16470824  0.40753998  0.03791305     1.02000
O170        O  0.18620112  0.42312612  0.05744919    -0.78500
O171        O  0.23896742  0.37698241  0.05952253    -0.78700
C172        C  0.25160687  0.34762026  0.06475077     1.01900
Cr173      Cr  0.20485414  0.33346123  0.12812492     1.93700
Cr174      Cr  0.14379545  0.37955390  0.10623548     1.93200
Cr175      Cr  0.21641285  0.40560554  0.09787464     1.39100
O176        O  0.18858551  0.37239810  0.11038721    -1.23700
C177        C  0.29515354  0.41741019  0.19216518    -0.27000
C178        C  0.27452912  0.38861215  0.19544412    -0.15000
C179        C  0.27439522  0.37088613  0.22929549     0.35600
C180        C  0.29333501  0.38298067  0.25916395    -0.26400
C181        C  0.31228520  0.41290632  0.25653832    -0.15700
C182        C  0.31398866  0.42971654  0.22217815     0.36700
N183        N  0.33434817  0.45952202  0.21791686    -0.89900
H184        H  0.29590797  0.43108658  0.16630837     0.17800
H185        H  0.29180441  0.36955729  0.28514785     0.17800
N186        N  0.25444808  0.34100919  0.23398628    -0.88900
H187        H  0.33241279  0.46910084  0.19114079     0.35200
H188        H  0.35996261  0.45221339  0.22167593     0.40300
H189        H  0.23701047  0.34536224  0.25539851     0.39900
H190        H  0.27090796  0.32111305  0.24185523     0.34800
C191        C  0.30204812  0.08128305  0.47478538    -0.27000
C192        C  0.32745752  0.08245664  0.50225266    -0.15000
C193        C  0.36048776  0.06907150  0.49385543     0.35600
C194        C  0.36661484  0.05394186  0.45951636    -0.26400
C195        C  0.34041115  0.05069357  0.43327512    -0.15700
C196        C  0.30789138  0.06527028  0.44101000     0.36700
N197        N  0.28014352  0.06425014  0.41532387    -0.89900
H198        H  0.27670081  0.09182467  0.47998292     0.17800
H199        H  0.39172605  0.04286196  0.45422243     0.17800
N200        N  0.38796839  0.06897430  0.51989018    -0.88900
H201        H  0.27282065  0.03912328  0.41174946     0.35200
H202        H  0.28842484  0.07411151  0.39017002     0.40300
H203        H  0.38055164  0.05538728  0.54322302     0.39900
H204        H  0.39308057  0.09401517  0.52716885     0.34800
C205        C  0.17548362  0.45534277  0.94819742    -0.27000
C206        C  0.14185973  0.45613878  0.93456963    -0.15000
C207        C  0.11693537  0.43619971  0.95237314     0.35600
C208        C  0.12540175  0.41832784  0.98475301    -0.26400
C209        C  0.15829338  0.42010048  0.99997361    -0.15700
C210        C  0.18402106  0.43751122  0.98044137     0.36700
N211        N  0.21861816  0.43785629  0.99394679    -0.89900
H212        H  0.19511726  0.46976382  0.93444273     0.17800
H213        H  0.10559153  0.40461369  0.99909728     0.17800
N214        N  0.08272236  0.43471749  0.93844400    -0.88900
H215        H  0.23415681  0.45247385  0.97689348     0.35200
H216        H  0.22835968  0.41306135  0.99262162     0.40300
H217        H  0.06888887  0.94839089  0.96314027     0.39900
H218        H  0.07586659  0.91309833  0.93758409     0.34800
C219        C  0.17936393  0.12043912  0.75109949    -0.27000
C220        C  0.16395532  0.08850358  0.75313128    -0.15000
C221        C  0.16432482  0.06773794  0.72135293     0.35600
C222        C  0.18231377  0.07783921  0.68981317    -0.26400
C223        C  0.19938583  0.10878714  0.68863222    -0.15700
C224        C  0.19697164  0.13070919  0.71923514     0.36700
N225        N  0.21404841  0.16257365  0.71895324    -0.89900
H226        H  0.17926197  0.13690682  0.77492571     0.17800
H227        H  0.18345524  0.06100840  0.66628584     0.17800
N228        N  0.14680612  0.03609694  0.72096876    -0.88900
H229        H  0.23157703  0.16260736  0.74067140     0.35200
H230        H  0.19577774  0.18172259  0.72383808     0.40300
H231        H  0.16469372  0.01678641  0.71522296     0.39900
H232        H  0.12893914  0.03687344  0.69958784     0.34800
C233        C  0.27697971  0.30168980  0.97707261    -0.27000
C234        C  0.31145321  0.29261409  0.98373729    -0.15000
C235        C  0.32695445  0.30403715  0.01649734     0.35600
C236        C  0.30732648  0.32294638  0.04228835    -0.26400
C237        C  0.27273642  0.33116829  0.03569240    -0.15700
C238        C  0.25769221  0.32071214  0.00242324     0.36700
N239        N  0.22233972  0.32766206  0.99443525    -0.89900
H240        H  0.26456205  0.29332523  0.95212238     0.17800
H241        H  0.31882576  0.33071044  0.06796922     0.17800
N242        N  0.36201031  0.29523153  0.02421258    -0.88900
H243        H  0.21832318  0.35391082  0.99417238     0.35200
H244        H  0.20741770  0.31733916  0.01542945     0.40300
H245        H  0.36328368  0.26892196  0.02731601     0.39900
H246        H  0.36954927  0.30557227  0.04934914     0.34800
C247        C  0.35818072  0.18381388  0.77429616    -0.27000
C248        C  0.33824505  0.16705085  0.80062768    -0.15000
C249        C  0.31515668  0.14199837  0.78962378     0.35600
C250        C  0.31038715  0.13626551  0.75202679    -0.26400
C251        C  0.32886913  0.15444381  0.72563815    -0.15700
C252        C  0.35384655  0.17761443  0.73667355     0.36700
N253        N  0.37325686  0.19601476  0.70977039    -0.89900
H254        H  0.37619742  0.20276108  0.78312027     0.17800
H255        H  0.29138198  0.11830605  0.74315249     0.17800
N256        N  0.29505880  0.12421082  0.81638074    -0.88900
H257        H  0.39069469  0.21192880  0.72264407     0.35200
H258        H  0.35622315  0.21180194  0.69527114     0.40300
H259        H  0.31175669  0.10827663  0.83109798     0.39900
H260        H  0.27763620  0.10833868  0.80341262     0.34800
C261        C  0.27641149  0.10740779  0.90689684    -0.27000
C262        C  0.26845380  0.13911206  0.92280998    -0.15000
C263        C  0.23419795  0.14863484  0.92840652     0.35600
C264        C  0.20839803  0.12688622  0.91682480    -0.26400
C265        C  0.21587721  0.09602419  0.89830156    -0.15700
C266        C  0.25047398  0.08602438  0.89379121     0.36700
N267        N  0.25929575  0.05485746  0.87541751    -0.89900
H268        H  0.30301716  0.10055020  0.90202591     0.17800
H269        H  0.18209027  0.13518525  0.92086226     0.17800
N270        N  0.22579857  0.18103230  0.94448833    -0.88900
H271        H  0.28579420  0.05067256  0.87594684     0.35200
H272        H  0.25273715  0.05779023  0.84770968     0.40300
H273        H  0.23516053  0.18085800  0.97142731     0.39900
H274        H  0.19926500  0.18452244  0.94637294     0.34800
C275        C  0.45916205  0.13235710  0.85214829    -0.27000
C276        C  0.46419240  0.16132449  0.87440812    -0.15000
C277        C  0.49803073  0.17076663  0.88247136     0.35600
C278        C  0.02794181  0.14517727  0.87233384    -0.26400
C279        C  0.02201908  0.11642982  0.85054953    -0.15700
C280        C  0.48635217  0.11083817  0.84200312     0.36700
N281        N  0.48000077  0.08037966  0.82188562    -0.89900
H282        H  0.43365021  0.12489308  0.84422468     0.17800
H283        H  0.05362271  0.14969925  0.88215697     0.17800
N284        N  0.00698157  0.19402280  0.90889713    -0.88900
H285        H  0.46790554  0.08712973  0.79722532     0.35200
H286        H  0.46305747  0.06570853  0.83721163     0.40300
H287        H  0.49633613  0.22166403  0.88698659     0.39900
H288        H  0.03303329  0.19517042  0.91525980     0.34800
C289        C  0.45037167  0.04090971  0.28964318    -0.27000
C290        C  0.41442593  0.04051334  0.28689248    -0.15000
C291        C  0.39836831  0.06261591  0.26119350     0.35600
C292        C  0.41854319  0.08257827  0.23731792    -0.26400
C293        C  0.45450611  0.08085959  0.23889332    -0.15700
C294        C  0.47024796  0.06069243  0.26616756     0.36700
N295        N  0.01065368  0.05333332  0.27383163    -0.89900
H296        H  0.46352841  0.02528890  0.30989547     0.17800
H297        H  0.40613998  0.09803396  0.21639112     0.17800
N298        N  0.36183362  0.06413262  0.25836682    -0.88900
H299        H  0.01511147  0.06046226  0.30107856     0.35200
H300        H  0.02364709  0.07100632  0.25790708     0.40300
H301        H  0.35515227  0.05761906  0.23148433     0.39900
H302        H  0.35385200  0.08922884  0.26287302     0.34800
C303        C  0.44341636  0.18394330  0.07897435    -0.27000
C304        C  0.45205849  0.14961262  0.08438501    -0.15000
C305        C  0.44087220  0.12575009  0.05796153     0.35600
C306        C  0.42219331  0.13677674  0.02708170    -0.26400
C307        C  0.41431644  0.17128951  0.02117984    -0.15700
C308        C  0.42488520  0.19496383  0.04800290     0.36700
N309        N  0.41773488  0.23048631  0.04378335    -0.89900
H310        H  0.45156661  0.20270922  0.09871970     0.17800
H311        H  0.41470565  0.11809838  0.00694535     0.17800
N312        N  0.44923852  0.09032828  0.06061766    -0.88900
H313        H  0.44101489  0.24317939  0.04316552     0.35200
H314        H  0.40413209  0.23873773  0.06699775     0.40300
H315        H  0.43841068  0.08064668  0.08466134     0.39900
H316        H  0.47586274  0.08734684  0.06163402     0.34800
C317        C  0.07452438  0.24392075  0.10722187    -0.27000
C318        C  0.09064747  0.21904213  0.12892314    -0.15000
C319        C  0.12653681  0.22050654  0.13454674     0.35600
C320        C  0.14523287  0.24684880  0.11916718    -0.26400
C321        C  0.12906786  0.27258167  0.09870149    -0.15700
C322        C  0.09344143  0.27070098  0.09215332     0.36700
N323        N  0.07635589  0.29626359  0.07059318    -0.89900
H324        H  0.04733366  0.24244084  0.10171387     0.17800
H325        H  0.17223113  0.24849039  0.12568081     0.17800
N326        N  0.14451820  0.19652181  0.15743733    -0.88900
H327        H  0.05709130  0.30737644  0.08678668     0.35200
H328        H  0.06469534  0.28437339  0.04831287     0.40300
H329        H  0.14307608  0.17238263  0.14586119     0.39900
H330        H  0.13288546  0.19636522  0.18335334     0.34800
C331        C  0.16611876  0.00263410  0.16064348    -0.27000
C332        C  0.14674699  0.46980315  0.15838586    -0.15000
C333        C  0.11220002  0.46543011  0.16893175     0.35600
C334        C  0.09281822  0.49297035  0.18173140    -0.26400
C335        C  0.11023285  0.02508948  0.18008129    -0.15700
C336        C  0.14552158  0.03012473  0.17307807     0.36700
N337        N  0.15943076  0.06358366  0.17509522    -0.89900
H338        H  0.19237975  0.00681826  0.15238987     0.17800
H339        H  0.06567424  0.48978952  0.18671290     0.17800
N340        N  0.09589829  0.43343962  0.16450026    -0.88900
H341        H  0.18525029  0.06316885  0.16743447     0.35200
H342        H  0.15863470  0.07101588  0.20267529     0.40300
H343        H  0.07510721  0.43682031  0.14670495     0.39900
H344        H  0.08643036  0.42591462  0.19012658     0.34800
C345        C  0.06371017  0.11162077  0.02532768    -0.27000
C346        C  0.07922658  0.08956328  0.05086314    -0.15000
C347        C  0.09962949  0.06212560  0.03856779     0.35600
C348        C  0.10333152  0.05679808  0.00055585    -0.26400
C349        C  0.08723457  0.07854059  0.97485181    -0.15700
C350        C  0.06762702  0.10657333  0.98758787     0.36700
N351        N  0.04990579  0.12924716  0.96309526    -0.89900
H352        H  0.04747988  0.13240211  0.03487732     0.17800
H353        H  0.11834084  0.03519774  0.99091442     0.17800
N354        N  0.11450855  0.03862465  0.06455135    -0.88900
H355        H  0.03384279  0.11509132  0.94626545     0.35200
H356        H  0.06794128  0.14156376  0.94685128     0.40300
H357        H  0.13286978  0.05160545  0.07964979     0.39900
H358        H  0.12755338  0.01898801  0.05087141     0.34800
C359        C  0.16407678  0.18647747  0.49303741    -0.27000
C360        C  0.17456563  0.21927225  0.48301508    -0.15000
C361        C  0.20420451  0.23230678  0.49949734     0.35600
C362        C  0.22237447  0.21294355  0.52538534    -0.26400
C363        C  0.21199429  0.18030869  0.53598717    -0.15700
C364        C  0.18251979  0.16677757  0.51923364     0.36700
N365        N  0.17125496  0.13338629  0.52879579    -0.89900
H366        H  0.14150958  0.17610830  0.48028286     0.17800
H367        H  0.24495940  0.22398974  0.53741854     0.17800
N368        N  0.21577177  0.26568156  0.49070209    -0.88900
H369        H  0.14990912  0.12691171  0.51316007     0.35200
H370        H  0.16311655  0.13409647  0.55620818     0.40300
H371        H  0.24081726  0.26357897  0.48064692     0.39900
H372        H  0.21626357  0.27988561  0.51494723     0.34800
C373        C  0.10963282  0.18188241  0.27552745    -0.27000
C374        C  0.07628541  0.16957517  0.27134035    -0.15000
C375        C  0.05298228  0.17365380  0.30128994     0.35600
C376        C  0.06283761  0.19118983  0.33288033    -0.26400
C377        C  0.09554020  0.20486536  0.33625017    -0.15700
C378        C  0.11961897  0.19920734  0.30756739     0.36700
N379        N  0.15364302  0.21237055  0.31011641    -0.89900
H380        H  0.12788533  0.17881895  0.25326745     0.17800
H381        H  0.04427610  0.19481756  0.35478671     0.17800
N382        N  0.01891519  0.16072633  0.30074472    -0.88900
H383        H  0.16717579  0.20822891  0.28565000     0.35200
H384        H  0.16659401  0.19837186  0.33037986     0.40300
H385        H  0.02008614  0.13470794  0.29525917     0.39900
H386        H  0.50247792  0.18628012  0.27534744     0.34800
C387        C  0.99594056  0.33807077  0.35103037    -0.27000
C388        C  0.00592868  0.33447096  0.38806789    -0.15000
C389        C  0.48544546  0.35514164  0.41509052     0.35600
C390        C  0.46044186  0.37923548  0.40486094    -0.26400
C391        C  0.45041829  0.38333747  0.36796387    -0.15700
C392        C  0.46419755  0.36146911  0.34111653     0.36700
N393        N  0.96140350  0.36595913  0.30271240    -0.89900
H394        H  0.00922110  0.32356013  0.32993492     0.17800
H395        H  0.44908245  0.39538734  0.42584028     0.17800
N396        N  0.49684636  0.35299063  0.45264167    -0.88900
H397        H  0.95249443  0.34268314  0.29329141     0.35200
H398        H  0.47489176  0.36962760  0.28752408     0.40300
H399        H  0.49059427  0.32898332  0.46258341     0.39900
H400        H  0.48361043  0.37058856  0.46907800     0.34800
C401        C  0.20287531  0.38866116  0.37426028    -0.27000
C402        C  0.20215209  0.37290018  0.40885260    -0.15000
C403        C  0.22554644  0.38230178  0.43606247     0.35600
C404        C  0.25092709  0.40589044  0.42708534    -0.26400
C405        C  0.25327068  0.41994777  0.39136380    -0.15700
C406        C  0.22799234  0.41195787  0.36517618     0.36700
N407        N  0.22851521  0.42494715  0.32835246    -0.89900
H408        H  0.18468802  0.38147929  0.35336392     0.17800
H409        H  0.27028309  0.41171263  0.44734177     0.17800
N410        N  0.22494737  0.36620246  0.47156068    -0.88900
H411        H  0.25146004  0.41740805  0.31576059     0.35200
H412        H  0.22714149  0.45141613  0.32943612     0.40300
H413        H  0.20192695  0.37323955  0.48438823     0.39900
H414        H  0.24462801  0.37528110  0.48810756     0.34800
C415        C  0.13305407  0.37149922  0.24143297    -0.27000
C416        C  0.13450171  0.34450537  0.21637793    -0.15000
C417        C  0.12915539  0.31116005  0.22897064     0.35600
C418        C  0.12628224  0.30505658  0.26675568    -0.26400
C419        C  0.12830975  0.33158004  0.29242390    -0.15700
C420        C  0.12991494  0.36533375  0.27939970     0.36700
N421        N  0.12967341  0.39331919  0.30443785    -0.89900
H422        H  0.13663258  0.39724610  0.23182569     0.17800
H423        H  0.12342997  0.27915566  0.27616148     0.17800
N424        N  0.12773300  0.28347143  0.20331965    -0.88900
H425        H  0.10888107  0.40920640  0.29778275     0.35200
H426        H  0.15207159  0.40697934  0.30029355     0.40300
H427        H  0.10628235  0.28756052  0.18661451     0.39900
H428        H  0.12397640  0.26048814  0.21704349     0.34800
C429        C  0.08419496  0.44647305  0.76398928    -0.27000
C430        C  0.06655142  0.46390323  0.79214067    -0.15000
C431        C  0.03094181  0.45844145  0.79640522     0.35600
C432        C  0.01350900  0.43879470  0.77053815    -0.26400
C433        C  0.03065294  0.42313470  0.74114436    -0.15700
C434        C  0.06673901  0.42624613  0.73833677     0.36700
N435        N  0.08634237  0.41051615  0.70931591    -0.89900
H436        H  0.11153790  0.44972695  0.76085598     0.17800
H437        H  0.48450664  0.43468261  0.77472772     0.17800
N438        N  0.01240582  0.47296378  0.82694744    -0.88900
H439        H  0.09692663  0.42985442  0.69342989     0.35200
H440        H  0.07097376  0.39653278  0.69173785     0.40300
H441        H  0.02201575  0.46169166  0.85095426     0.39900
H442        H  0.98646261  0.46694253  0.82569973     0.34800
C443        C  0.38213592  0.39831311  0.53479142    -0.27000
C444        C  0.40632163  0.41875984  0.55204604    -0.15000
C445        C  0.42083189  0.44611636  0.53306194     0.35600
C446        C  0.41168352  0.45187369  0.49652694    -0.26400
C447        C  0.38849198  0.43077719  0.47859594    -0.15700
C448        C  0.37333041  0.40374565  0.49782429     0.36700
N449        N  0.34871418  0.38249419  0.48020883    -0.89900
H450        H  0.37100123  0.37743382  0.54984229     0.17800
H451        H  0.42323592  0.47269020  0.48175349     0.17800
N452        N  0.44460926  0.46803920  0.55107093    -0.88900
H453        H  0.33821345  0.36560971  0.49919419     0.35200
H454        H  0.36186287  0.36750862  0.46097595     0.40300
H455        H  0.43138719  0.48058311  0.57219796     0.39900
H456        H  0.45310366  0.48681277  0.53300663     0.34800
C457        C  0.34396335  0.46607046  0.64790061    -0.27000
C458        C  0.36935700  0.47035174  0.67481910    -0.15000
C459        C  0.37241611  0.50171644  0.69228579     0.35600
C460        C  0.36451353  0.03215343  0.67526848    -0.26400
C461        C  0.33483581  0.02761400  0.65360619    -0.15700
C462        C  0.32319220  0.99431704  0.64807257     0.36700
N463        N  0.29214178  0.98861366  0.62806096    -0.89900
H464        H  0.34166348  0.44163781  0.63464191     0.17800
H465        H  0.37343003  0.05740773  0.68122117     0.17800
N466        N  0.39767609  0.50599588  0.72053439    -0.88900
H467        H  0.30087609  0.46419490  0.59622981     0.35200
H468        H  0.27192015  0.99878438  0.64362692     0.40300
H469        H  0.39102390  0.49034499  0.74260570     0.39900
H470        H  0.42095905  0.03614119  0.70906052     0.34800
C471        C  0.34399495  0.25711855  0.60375553    -0.27000
C472        C  0.35880435  0.22473477  0.60196604    -0.15000
C473        C  0.39422799  0.22038151  0.60934592     0.35600
C474        C  0.41351293  0.24854571  0.62066979    -0.26400
C475        C  0.39795272  0.28069050  0.62435317    -0.15700
C476        C  0.36292136  0.28490345  0.61488499     0.36700
N477        N  0.34569389  0.31714731  0.61851939    -0.89900
H478        H  0.31681167  0.26058249  0.59860521     0.17800
H479        H  0.44040387  0.24530318  0.62728442     0.17800
N480        N  0.41010350  0.18730117  0.60696828    -0.88900
H481        H  0.32540774  0.31448941  0.63705842     0.35200
H482        H  0.33550137  0.32389387  0.59289273     0.40300
H483        H  0.39970024  0.17225589  0.62774887     0.39900
H484        H  0.43631594  0.18866654  0.61239995     0.34800
C485        C  0.05788619  0.30615310  0.54545020    -0.27000
C486        C  0.07130497  0.33130653  0.52233652    -0.15000
C487        C  0.07023385  0.36536449  0.53455214     0.35600
C488        C  0.05362131  0.37355087  0.56810812    -0.26400
C489        C  0.03831005  0.34841921  0.59004932    -0.15700
C490        C  0.04163803  0.31423330  0.57879588     0.36700
N491        N  0.54809350  0.30109429  0.61077108    -0.89900
H492        H  0.05880364  0.27979771  0.53705696     0.17800
H493        H  0.05178832  0.39984875  0.57655854     0.17800
N494        N  0.08573286  0.39151705  0.51288832    -0.88900
H495        H  0.57321400  0.29408126  0.61765636     0.35200
H496        H  0.53586860  0.27962150  0.60073438     0.40300
H497        H  0.11208011  0.38636997  0.51208892     0.39900
H498        H  0.08261057  0.41511610  0.52563704     0.34800
C499        C  0.42981989  0.32278245  0.79594544    -0.27000
C500        C  0.40521273  0.32971812  0.76858180    -0.15000
C501        C  0.37066572  0.32139991  0.77569971     0.35600
C502        C  0.36216632  0.30482784  0.80887033    -0.26400
C503        C  0.38730904  0.29618503  0.83509592    -0.15700
C504        C  0.42134142  0.30605211  0.82866324     0.36700
N505        N  0.44769424  0.29873164  0.85502569    -0.89900
H506        H  0.45635173  0.32933303  0.79159187     0.17800
H507        H  0.33592528  0.29744595  0.81357025     0.17800
N508        N  0.34444608  0.32888054  0.74904487    -0.88900
H509        H  0.45872327  0.32161810  0.86274230     0.35200
H510        H  0.46657830  0.28379398  0.84219072     0.40300
H511        H  0.34192698  0.35527364  0.74724017     0.39900
H512        H  0.32076047  0.32001371  0.75800549     0.34800
O513        O  0.01335176  0.88959696  0.63090050    -0.86000
O514        O  0.45053116  0.91010263  0.59832685    -0.83000
C515        C  0.41919187  0.91019437  0.59062988     0.97500
O516        O  0.39691848  0.90347306  0.61482722    -0.83100
O517        O  0.40700128  0.83806721  0.62732462    -0.85700
C518        C  0.41738363  0.80949385  0.63717382     1.02000
O519        O  0.44028414  0.80723465  0.66197076    -0.78500
O520        O  0.99607025  0.83740088  0.63323680    -0.78700
C521        C  0.01434047  0.85966516  0.61856173     1.01900
O522        O  0.48574149  0.92474040  0.69763325    -0.86000
O523        O  0.42750335  0.94738483  0.66038072    -0.83100
C524        C  0.40042325  0.94382277  0.67918596     0.97500
O525        O  0.39305010  0.91537422  0.69243038    -0.83100
O526        O  0.39859481  0.84619394  0.70703458    -0.85700
C527        C  0.41966090  0.84073583  0.73322591     1.02000
O528        O  0.45107917  0.84599384  0.72836561    -0.78500
O529        O  0.01180604  0.87448705  0.70114516    -0.78700
C530        C  0.01068510  0.90596324  0.70942370     1.01900
Cr531      Cr  0.46734174  0.91631523  0.64835431     1.93700
Cr532      Cr  0.40231208  0.87575976  0.66109806     1.93200
Cr533      Cr  0.47262446  0.84440581  0.67954133     1.39100
O534        O  0.44727197  0.87914480  0.66374028    -1.23700
O535        O  0.13365169  0.73459710  0.37756292    -0.86000
O536        O  0.13737598  0.79418409  0.33963728    -0.83000
C537        C  0.13101733  0.82457132  0.33068870     0.97500
O538        O  0.12567855  0.84683251  0.35514634    -0.83100
O539        O  0.06233304  0.83194602  0.37730698    -0.85700
C540        C  0.03710639  0.81828480  0.39200598     1.02000
O541        O  0.04161462  0.79620290  0.41701481    -0.78500
O542        O  0.07875877  0.74405491  0.38304741    -0.78700
C543        C  0.10342848  0.72898753  0.36724859     1.01900
O544        O  0.16812051  0.76524034  0.43825090    -0.86000
O545        O  0.17930078  0.82287311  0.39508006    -0.83100
C546        C  0.17471818  0.84926122  0.41432321     0.92700
O547        O  0.14646307  0.85483287  0.43009429    -0.83100
O548        O  0.07993312  0.84333367  0.45394066    -0.85700
C549        C  0.07977304  0.82313409  0.48125478     1.02000
O550        O  0.08847981  0.79243186  0.47714884    -0.78500
O551        O  0.12147025  0.73643170  0.44872016    -0.78700
C552        C  0.15248080  0.74284368  0.45636232     1.01900
Cr553      Cr  0.15209279  0.78040763  0.38932987     1.93700
Cr554      Cr  0.10423895  0.84084736  0.40483507     1.93200
Cr555      Cr  0.08472563  0.76907340  0.42972294     1.39100
O556        O  0.11394831  0.79703233  0.40860498    -1.23700
O557        O  0.47615981  0.60463513  0.13026584    -0.86000
O558        O  0.03651474  0.59412990  0.09801399    -0.83000
C559        C  0.06808793  0.59418455  0.09117686     0.97500
O560        O  0.08971122  0.59565968  0.11704407    -0.83100
O561        O  0.08179174  0.66116171  0.13103897    -0.85700
C562        C  0.07150100  0.68954926  0.14154336     1.02000
O563        O  0.04720214  0.69180304  0.16490740    -0.78500
O564        O  0.49282326  0.65696549  0.13121096    -0.78700
C565        C  0.47443940  0.63436351  0.11734246     1.01900
O566        O  0.50027607  0.57073857  0.19509966    -0.86000
O567        O  0.05791929  0.55244361  0.15895335    -0.83100
C568        C  0.08307350  0.55445670  0.18089646     0.97500
O569        O  0.09015172  0.58237059  0.19528799    -0.83100
O570        O  0.08753233  0.65107984  0.21000902    -0.85700
C571        C  0.06602378  0.65619270  0.23580393     1.02000
O572        O  0.03474537  0.65152231  0.23017880    -0.78500
O573        O  0.47707828  0.62186969  0.20078382    -0.78700
C574        C  0.47949136  0.59084387  0.21078986     1.01900
Cr575      Cr  0.01866008  0.58445741  0.14734889     1.93700
Cr576      Cr  0.08395452  0.62252392  0.16385892     1.93200
Cr577      Cr  0.01381589  0.65492344  0.18130807     1.39100
O578        O  0.03885284  0.62047865  0.16490039    -1.23700
O579        O  0.35201656  0.76731033  0.87852986    -0.86000
O580        O  0.34184331  0.70663838  0.84523424    -0.83000
C581        C  0.34257847  0.67539410  0.83841319     0.97500
O582        O  0.34499000  0.65387040  0.86416148    -0.83100
O583        O  0.40989163  0.66319881  0.88120805    -0.85700
C584        C  0.43772475  0.67475469  0.89167229     1.02000
O585        O  0.43798041  0.69751965  0.91646494    -0.78500
O586        O  0.40562503  0.75258843  0.88442486    -0.78700
C587        C  0.38280394  0.76973097  0.86811666     1.01900
O588        O  0.31504556  0.74312026  0.94139458    -0.86000
O589        O  0.29816234  0.68485676  0.90352371    -0.83100
C590        C  0.30056388  0.65907804  0.92436050     0.97500
O591        O  0.32813595  0.65211689  0.94072893    -0.83100
O592        O  0.39715105  0.65562281  0.95944914    -0.85700
C593        C  0.40104431  0.67651012  0.98566533     1.02000
O594        O  0.39458995  0.70754595  0.98057309    -0.78500
O595        O  0.36524963  0.76565672  0.95205796    -0.78700
C596        C  0.33307106  0.76422006  0.95834651     1.01900
Cr597      Cr  0.32918110  0.72410259  0.89389945     1.93700
Cr598      Cr  0.36988666  0.65962050  0.91207963     1.93200
Cr599      Cr  0.39845938  0.72929501  0.93205535     1.39100
O600        O  0.36551793  0.70429217  0.91363357    -1.23700
O601        O  0.10463966  0.98079410  0.88983848    -0.86000
O602        O  0.09189494  0.54377486  0.92950921    -0.83000
C603        C  0.09322935  0.57463240  0.93789694     0.97500
O604        O  0.09597127  0.59702028  0.91307387    -0.83100
O605        O  0.16059551  0.58527058  0.89582126    -0.85700
C606        C  0.18868277  0.57522056  0.88349818     1.02000
O607        O  0.18921824  0.55298063  0.85810031    -0.78500
O608        O  0.15762212  0.99705118  0.88829813    -0.78700
C609        C  0.13493885  0.97845643  0.90202308     1.01900
O610        O  0.06935993  0.00798775  0.82681961    -0.86000
O611        O  0.04913228  0.56938626  0.87143830    -0.83100
C612        C  0.05199966  0.59560654  0.85144006     0.97500
O613        O  0.07992147  0.60220621  0.83610561    -0.83100
O614        O  0.14833533  0.59619926  0.81727899    -0.85700
C615        C  0.15140184  0.57609209  0.79003870     1.02000
O616        O  0.14567865  0.54495619  0.79425600    -0.78500
O617        O  0.12037327  0.98456192  0.81918526    -0.78700
C618        C  0.08831296  0.98575184  0.81189545     1.01900
Cr619      Cr  0.07996406  0.52866296  0.87984638     1.93700
Cr620      Cr  0.12110779  0.59192730  0.86480579     1.93200
Cr621      Cr  0.14971892  0.52211375  0.84233338     1.39100
O622        O  0.11655005  0.54766887  0.86133880    -1.23700
O623        O  0.22502242  0.64739907  0.64564959    -0.86000
O624        O  0.28626774  0.65359079  0.67988516    -0.83000
C625        C  0.31766124  0.65095028  0.68690726     0.97500
O626        O  0.33963854  0.64800023  0.66134853    -0.83100
O627        O  0.33091337  0.58437343  0.64130667    -0.85700
C628        C  0.31562588  0.55792414  0.63302902     1.02000
O629        O  0.29160951  0.55900900  0.60938891    -0.78500
O630        O  0.23769263  0.59373201  0.64105346    -0.78700
C631        C  0.22121056  0.61730988  0.65667393     1.01900
O632        O  0.25254643  0.68245203  0.58351970    -0.86000
O633        O  0.31088949  0.69717304  0.62323486    -0.83100
C634        C  0.33632476  0.69477077  0.60168681     0.97500
O635        O  0.34238538  0.66753140  0.58483186    -0.83100
O636        O  0.33654738  0.60002480  0.56359243    -0.85700
C637        C  0.31462759  0.59604807  0.53820463     1.02000
O638        O  0.28333998  0.60164998  0.54460558    -0.78500
O639        O  0.22681819  0.63421857  0.57308726    -0.78700
C640        C  0.23042150  0.66582018  0.56627440     1.01900
Cr641      Cr  0.27005555  0.66760879  0.63132057     1.93700
Cr642      Cr  0.33379864  0.62533202  0.61215401     1.93200
Cr643      Cr  0.26168517  0.59946280  0.59337669     1.39100
O644        O  0.28867230  0.63086439  0.61150632    -1.23700
O645        O  0.37455456  0.52501287  0.38742417    -0.86000
O646        O  0.38867908  0.96936533  0.42902885    -0.83000
C647        C  0.38698716  0.93915708  0.43992210     0.97500
O648        O  0.38185752  0.91525251  0.41737544    -0.83100
O649        O  0.31657204  0.92360997  0.39724888    -0.85700
C650        C  0.28921992  0.93440368  0.38334153     1.02000
O651        O  0.29048100  0.95612557  0.35745364    -0.78500
O652        O  0.32092827  0.51216795  0.38377681    -0.78700
C653        C  0.34423409  0.52882717  0.39894158     1.01900
O654        O  0.41191618  0.49205648  0.32960468    -0.86000
O655        O  0.43067446  0.93977501  0.37432222    -0.83100
C656        C  0.42786651  0.91209523  0.35713582     0.97500
O657        O  0.40045219  0.90558288  0.34081045    -0.83100
O658        O  0.33200596  0.90975542  0.32078800    -0.85700
C659        C  0.32804126  0.92832312  0.29239364     1.02000
O660        O  0.33402103  0.95969388  0.29394763    -0.78500
O661        O  0.36334486  0.51821642  0.31675520    -0.78700
C662        C  0.39555914  0.51447310  0.31170325     1.01900
Cr663      Cr  0.39986598  0.98085552  0.37815655     1.93700
Cr664      Cr  0.35807590  0.91680445  0.36816446     1.93200
Cr665      Cr  0.33021755  0.98552367  0.34036731     1.39100
O666        O  0.36284648  0.96082546  0.36166761    -1.23700
O667        O  0.23550200  0.85398266  0.16643949    -0.86000
O668        O  0.17128004  0.82978245  0.16512910    -0.83000
C669        C  0.15169053  0.85254864  0.17828109     0.97500
O670        O  0.14384238  0.87884855  0.15996700    -0.83100
O671        O  0.15126714  0.93036068  0.10814899    -0.85700
C672        C  0.16914685  0.94503644  0.13148477     1.02000
O673        O  0.20051617  0.93695386  0.13365336    -0.78500
O674        O  0.25760921  0.89488718  0.13418855    -0.78700
C675        C  0.25608849  0.87808796  0.16370836     1.01900
O676        O  0.24750120  0.82789765  0.09238521    -0.86000
O677        O  0.18008915  0.80529992  0.09226983    -0.83100
C678        C  0.14783310  0.80610590  0.09569073     0.97500
O679        O  0.13290185  0.83364645  0.10283034    -0.83100
O680        O  0.15154506  0.88329255  0.05080937    -0.85700
C681        C  0.16925529  0.90639043  0.03605815     1.02000
O682        O  0.19233909  0.92110721  0.05442666    -0.78500
O683        O  0.24496394  0.87493726  0.05928243    -0.78700
C684        C  0.25557816  0.84473607  0.06404282     1.01900
Cr685      Cr  0.20783071  0.83250439  0.12722742     1.93700
Cr686      Cr  0.14840997  0.88073205  0.10545189     1.93200
Cr687      Cr  0.22167692  0.90458114  0.09639821     1.39100
O688        O  0.19301212  0.87204790  0.10918496    -1.23700
C689        C  0.29707561  0.91791940  0.19331775    -0.27000
C690        C  0.27785729  0.88808078  0.19573132    -0.15000
C691        C  0.27783738  0.87021329  0.22953488     0.35600
C692        C  0.29578626  0.88289499  0.25996373    -0.26400
C693        C  0.31363066  0.91356002  0.25797206    -0.15700
C694        C  0.31482950  0.93083389  0.22382213     0.36700
N695        N  0.33355947  0.96176520  0.22022652    -0.89900
H696        H  0.29756465  0.93194583  0.16767657     0.17800
H697        H  0.29448720  0.86920798  0.28580141     0.17800
N698        N  0.25898740  0.83957399  0.23359985    -0.88900
H699        H  0.33122506  0.97169087  0.19363496     0.35200
H700        H  0.35949428  0.95576837  0.22400655     0.40300
H701        H  0.24102498  0.84316385  0.25466815     0.39900
H702        H  0.27604336  0.82026688  0.24172477     0.34800
C703        C  0.29830638  0.57948963  0.47436216    -0.27000
C704        C  0.32442331  0.58291671  0.50081997    -0.15000
C705        C  0.35792022  0.57148337  0.49126409     0.35600
C706        C  0.36383875  0.55594439  0.45704197    -0.26400
C707        C  0.33711687  0.55043158  0.43186699    -0.15700
C708        C  0.30402603  0.56313028  0.44069766     0.36700
N709        N  0.27549496  0.55976152  0.41633523    -0.89900
H710        H  0.27251253  0.58845025  0.48029498     0.17800
H711        H  0.38944853  0.54649656  0.45098715     0.17800
N712        N  0.38635807  0.57423557  0.51582363    -0.88900
H713        H  0.26979202  0.53409485  0.41365664     0.35200
H714        H  0.28207671  0.56969296  0.39063939     0.40300
H715        H  0.38127906  0.56029563  0.53969404     0.39900
H716        H  0.38943240  0.59973679  0.52251331     0.34800
C717        C  0.17808156  0.95229630  0.94463398    -0.27000
C718        C  0.14382628  0.95489984  0.93298032    -0.15000
C719        C  0.11867696  0.93718926  0.95308088     0.35600
C720        C  0.12779318  0.91944767  0.98536575    -0.26400
C721        C  0.16161349  0.91907209  0.99833181    -0.15700
C722        C  0.18726768  0.93448467  0.97678943     0.36700
N723        N  0.22254645  0.93261582  0.98802857    -0.89900
H724        H  0.19783070  0.96504085  0.92917699     0.17800
H725        H  0.10790699  0.90749016  0.00138830     0.17800
N726        N  0.08358685  0.93806634  0.94172833    -0.88900
H727        H  0.23809268  0.94565529  0.96952053     0.35200
H728        H  0.23036483  0.90716340  0.98689829     0.40300
H729        H  0.06597037  0.44334506  0.95897917     0.39900
H730        H  0.07728296  0.40932052  0.93309767     0.34800
C731        C  0.17781521  0.62125245  0.75069885    -0.27000
C732        C  0.16428864  0.58849091  0.75365496    -0.15000
C733        C  0.16575973  0.56718342  0.72231315     0.35600
C734        C  0.18322528  0.57762772  0.69051524    -0.26400
C735        C  0.19850828  0.60951603  0.68844524    -0.15700
C736        C  0.19460835  0.63195602  0.71846349     0.36700
N737        N  0.20910959  0.66505940  0.71714163    -0.89900
H738        H  0.17658523  0.63832397  0.77399653     0.17800
H739        H  0.18529277  0.56034917  0.66743418     0.17800
N740        N  0.14983927  0.53470789  0.72254368    -0.88900
H741        H  0.22656282  0.66702945  0.73878177     0.35200
H742        H  0.18939819  0.68288526  0.72147595     0.40300
H743        H  0.16862882  0.51617941  0.71710036     0.39900
H744        H  0.13195083  0.53430326  0.70118921     0.34800
C745        C  0.28036491  0.79573663  0.97825485    -0.27000
C746        C  0.31521290  0.78791731  0.98443478    -0.15000
C747        C  0.33104481  0.80108320  0.01621539     0.35600
C748        C  0.31147106  0.82066053  0.04145847    -0.26400
C749        C  0.27657401  0.82769431  0.03532010    -0.15700
C750        C  0.26109906  0.81527488  0.00314080     0.36700
N751        N  0.22542796  0.82098937  0.99578305    -0.89900
H752        H  0.26766203  0.78605014  0.95406200     0.17800
H753        H  0.32325229  0.82982233  0.06642073     0.17800
N754        N  0.36643485  0.79346183  0.02354133    -0.88900
H755        H  0.22069305  0.84711505  0.99465411     0.35200
H756        H  0.21126756  0.81097967  0.01757642     0.40300
H757        H  0.36843298  0.76729688  0.02774638     0.39900
H758        H  0.37412559  0.80487893  0.04802244     0.34800
C759        C  0.35841144  0.68232800  0.77354218    -0.27000
C760        C  0.33973701  0.66457474  0.80012478    -0.15000
C761        C  0.31616775  0.63984987  0.78933644     0.35600
C762        C  0.31048836  0.63469795  0.75174694    -0.26400
C763        C  0.32827034  0.65342741  0.72523340    -0.15700
C764        C  0.35283084  0.67707508  0.73601574     0.36700
N765        N  0.37048618  0.69697453  0.70898246    -0.89900
H766        H  0.37642233  0.70135598  0.78217627     0.17800
H767        H  0.29140720  0.61675582  0.74301836     0.17800
N768        N  0.29651513  0.62187772  0.81634643    -0.88900
H769        H  0.38770386  0.71326284  0.72163777     0.35200
H770        H  0.35231456  0.71244154  0.69570514     0.40300
H771        H  0.31337534  0.60565552  0.83046639     0.39900
H772        H  0.27867433  0.60631119  0.80359034     0.34800
C773        C  0.28001733  0.60228576  0.90687885    -0.27000
C774        C  0.27307172  0.63420895  0.92285320    -0.15000
C775        C  0.23918406  0.64493714  0.92830632     0.35600
C776        C  0.21272363  0.62438114  0.91623190    -0.26400
C777        C  0.21913784  0.59325704  0.89784929    -0.15700
C778        C  0.25333446  0.58187074  0.89362273     0.36700
N779        N  0.26098108  0.55028562  0.87552170    -0.89900
H780        H  0.30639734  0.59452451  0.90209176     0.17800
H781        H  0.18674395  0.63378523  0.91998074     0.17800
N782        N  0.23187629  0.67744453  0.94470897    -0.88900
H783        H  0.28732530  0.54513474  0.87612309     0.35200
H784        H  0.25451532  0.55323503  0.84779466     0.40300
H785        H  0.24096419  0.67661812  0.97174691     0.39900
H786        H  0.20546771  0.68195171  0.94634551     0.34800
C787        C  0.46428102  0.62786317  0.85578058    -0.27000
C788        C  0.46894233  0.65804516  0.87604765    -0.15000
C789        C  0.50256348  0.66905562  0.88254262     0.35600
C790        C  0.02977950  0.65212012  0.87016850    -0.26400
C791        C  0.02431227  0.62108524  0.85215322    -0.15700
C792        C  0.49184916  0.60703215  0.84563009     0.36700
N793        N  0.48601910  0.57530544  0.82772866    -0.89900
H794        H  0.43887436  0.61895340  0.84947763     0.17800
H795        H  0.05564552  0.65900234  0.87743411     0.17800
N796        N  0.00774386  0.70333416  0.90219929    -0.88900
H797        H  0.47266664  0.58024283  0.80333794     0.35200
H798        H  0.47040765  0.56076016  0.84476919     0.40300
H799        H  0.49890455  0.72004352  0.88475232     0.39900
H800        H  0.03399182  0.70719113  0.90539334     0.34800
C801        C  0.45147795  0.53621714  0.29019200    -0.27000
C802        C  0.41555071  0.53742638  0.28713794    -0.15000
C803        C  0.40055711  0.56046667  0.26159955     0.35600
C804        C  0.42193137  0.57958392  0.23815121    -0.26400
C805        C  0.45780398  0.57679023  0.24040192    -0.15700
C806        C  0.47258948  0.55596164  0.26805677     0.36700
N807        N  0.00807500  0.56296877  0.27932255    -0.89900
H808        H  0.46372212  0.51981793  0.31038455     0.17800
H809        H  0.41058975  0.59567632  0.21709487     0.17800
N810        N  0.36397128  0.56367292  0.25859819    -0.88900
H811        H  0.01068089  0.57280273  0.30581648     0.35200
H812        H  0.02078957  0.57964243  0.26186370     0.40300
H813        H  0.35728811  0.58037990  0.23731416     0.39900
H814        H  0.35497756  0.57493734  0.28285013     0.34800
C815        C  0.44244145  0.67740104  0.08074741    -0.27000
C816        C  0.45135745  0.64317288  0.08602199    -0.15000
C817        C  0.44047290  0.61925089  0.05951757     0.35600
C818        C  0.42283463  0.63040635  0.02793268    -0.26400
C819        C  0.41555920  0.66503952  0.02177413    -0.15700
C820        C  0.42488233  0.68851374  0.04930483     0.36700
N821        N  0.41765410  0.72402697  0.04527478    -0.89900
H822        H  0.44997055  0.69613525  0.10082612     0.17800
H823        H  0.41577657  0.61182566  0.00750284     0.17800
N824        N  0.44807541  0.58372035  0.06290193    -0.88900
H825        H  0.44084851  0.73687706  0.04577339     0.35200
H826        H  0.40318425  0.73192110  0.06802581     0.40300
H827        H  0.43683207  0.57472849  0.08705847     0.39900
H828        H  0.47461974  0.58021958  0.06435710     0.34800
C829        C  0.07312678  0.74850580  0.11613212    -0.27000
C830        C  0.09054903  0.71907092  0.12751999    -0.15000
C831        C  0.12680660  0.71719742  0.12346328     0.35600
C832        C  0.14458761  0.74477624  0.10946098    -0.26400
C833        C  0.12749606  0.77477183  0.09935692    -0.15700
C834        C  0.09115408  0.77617336  0.10176113     0.36700
N835        N  0.07241043  0.80591772  0.09034898    -0.89900
H836        H  0.04545806  0.75001742  0.11820696     0.17800
H837        H  0.17231312  0.74331128  0.10864603     0.17800
N838        N  0.14676199  0.68831482  0.13524061    -0.88900
H839        H  0.05836226  0.81499139  0.11289349     0.35200
H840        H  0.05508392  0.79886913  0.06996495     0.40300
H841        H  0.14136295  0.66757373  0.11852351     0.39900
H842        H  0.14064691  0.68276004  0.16258426     0.34800
C843        C  0.16231909  0.50087016  0.16548751    -0.27000
C844        C  0.15172653  0.97077467  0.15485971    -0.15000
C845        C  0.11741342  0.96546781  0.16589513     0.35600
C846        C  0.09729569  0.99244908  0.17867449    -0.26400
C847        C  0.10690575  0.52516354  0.18377603    -0.15700
C848        C  0.14258406  0.52887132  0.17811022     0.36700
N849        N  0.15788382  0.56159886  0.18162038    -0.89900
H850        H  0.18893658  0.50416327  0.15807426     0.17800
H851        H  0.07039405  0.98837085  0.18430415     0.17800
N852        N  0.10194860  0.93303647  0.16195867    -0.88900
H853        H  0.18391614  0.56022014  0.17492281     0.35200
H854        H  0.15650645  0.56840736  0.20937081     0.40300
H855        H  0.08089596  0.93568426  0.14439252     0.39900
H856        H  0.09299750  0.92543514  0.18777874     0.34800
C857        C  0.06286179  0.61384539  0.02710810    -0.27000
C858        C  0.07914826  0.59230395  0.05267909    -0.15000
C859        C  0.10297553  0.56757205  0.04059159     0.35600
C860        C  0.10820959  0.56334720  0.00267198    -0.26400
C861        C  0.09070982  0.58387744  0.97695579    -0.15700
C862        C  0.06868645  0.61017749  0.98943064     0.36700
N863        N  0.05047737  0.63220861  0.96459752    -0.89900
H864        H  0.04471859  0.63308581  0.03650165     0.17800
H865        H  0.12533141  0.54332580  0.99303309     0.17800
N866        N  0.11991936  0.54545297  0.06655732    -0.88900
H867        H  0.03585719  0.61743567  0.94689787     0.35200
H868        H  0.06826497  0.64565340  0.94907927     0.40300
H869        H  0.13651846  0.56019186  0.08210960     0.39900
H870        H  0.13527611  0.52751337  0.05288634     0.34800
C871        C  0.16073957  0.69058244  0.49578830    -0.27000
C872        C  0.17100531  0.72345098  0.48579302    -0.15000
C873        C  0.19942108  0.73749925  0.50383381     0.35600
C874        C  0.21802108  0.71790922  0.52939116    -0.26400
C875        C  0.20866635  0.68463108  0.53876897    -0.15700
C876        C  0.17901650  0.67115025  0.52231672     0.36700
N877        N  0.16739544  0.63804533  0.53255470    -0.89900
H878        H  0.13855154  0.67986665  0.48261565     0.17800
H879        H  0.24016438  0.72906822  0.54218183     0.17800
N880        N  0.20916794  0.77190346  0.49655377    -0.88900
H881        H  0.14566754  0.63172612  0.51744611     0.35200
H882        H  0.15970508  0.63922373  0.56010055     0.40300
H883        H  0.23082970  0.77828469  0.51175509     0.39900
H884        H  0.18925091  0.78780552  0.50573371     0.34800
C885        C  0.10999708  0.68386172  0.27491864    -0.27000
C886        C  0.07706906  0.67023489  0.27191402    -0.15000
C887        C  0.05470273  0.67277862  0.30278188     0.35600
C888        C  0.06491217  0.69014605  0.33422260    -0.26400
C889        C  0.09683721  0.70561218  0.33621306    -0.15700
C890        C  0.12015162  0.70152628  0.30661378     0.36700
N891        N  0.15322028  0.71697663  0.30775419    -0.89900
H892        H  0.12751401  0.68199973  0.25184108     0.17800
H893        H  0.04701779  0.69263547  0.35693064     0.17800
N894        N  0.02115188  0.65866956  0.30324226    -0.88900
H895        H  0.16609094  0.71372797  0.28272898     0.35200
H896        H  0.16781361  0.70394187  0.32747137     0.40300
H897        H  0.02312445  0.63291250  0.29685591     0.39900
H898        H  0.50490316  0.66921757  0.28271989     0.34800
C899        C  0.99624073  0.84117808  0.34558178    -0.27000
C900        C  0.00297678  0.83239201  0.38251828    -0.15000
C901        C  0.48677130  0.85404545  0.41062132     0.35600
C902        C  0.46298552  0.87945864  0.40099749    -0.26400
C903        C  0.45332212  0.88488491  0.36423721    -0.15700
C904        C  0.46644192  0.86328314  0.33673826     0.36700
N905        N  0.96417326  0.87393443  0.29887964    -0.89900
H906        H  0.01282561  0.83146152  0.32396525     0.17800
H907        H  0.45196001  0.89529143  0.42244691     0.17800
N908        N  0.49707146  0.84976508  0.44833634    -0.88900
H909        H  0.95848543  0.85197583  0.28417943     0.35200
H910        H  0.47695388  0.87202786  0.28318973     0.40300
H911        H  0.48951966  0.82564509  0.45675210     0.39900
H912        H  0.48413827  0.86712930  0.46530986     0.34800
C913        C  0.19724819  0.90210551  0.38758219    -0.27000
C914        C  0.20105185  0.87558681  0.41318801    -0.15000
C915        C  0.23212873  0.87136107  0.43195589     0.35600
C916        C  0.25933059  0.89307326  0.42385529    -0.26400
C917        C  0.25682084  0.91807192  0.39587743    -0.15700
C918        C  0.22477136  0.92292316  0.37822293     0.36700
N919        N  0.21964399  0.94741741  0.34953573    -0.89900
H920        H  0.17331185  0.90514461  0.37283379     0.17800
H921        H  0.28333400  0.88893241  0.43816510     0.17800
N922        N  0.23641256  0.84403463  0.45787652    -0.88900
H923        H  0.23582817  0.94129185  0.32751901     0.35200
H924        H  0.22573217  0.97135898  0.35967465     0.40300
H925        H  0.21947157  0.84856027  0.47967962     0.39900
H926        H  0.26108628  0.84394149  0.46900623     0.34800
C927        C  0.14033776  0.87389546  0.24128676    -0.27000
C928        C  0.13876181  0.84740644  0.21577922    -0.15000
C929        C  0.13011628  0.81455170  0.22765150     0.35600
C930        C  0.12635663  0.80814985  0.26528573    -0.26400
C931        C  0.13087164  0.83393621  0.29130354    -0.15700
C932        C  0.13649583  0.86743753  0.27903544     0.36700
N933        N  0.14007715  0.89463354  0.30471570    -0.89900
H934        H  0.14685162  0.89918950  0.23218696     0.17800
H935        H  0.12074772  0.78262869  0.27435759     0.17800
N936        N  0.12626622  0.78760585  0.20141161    -0.88900
H937        H  0.12163652  0.91328850  0.29849025     0.35200
H938        H  0.16424240  0.90513661  0.30093674     0.40300
H939        H  0.10542615  0.79399163  0.18460750     0.39900
H940        H  0.12017668  0.76490526  0.21464059     0.34800
C941        C  0.08726239  0.94756192  0.75588505    -0.27000
C942        C  0.07138436  0.96023183  0.78792001    -0.15000
C943        C  0.03740391  0.95041654  0.79584355     0.35600
C944        C  0.01919503  0.93108750  0.77035369    -0.26400
C945        C  0.03406803  0.92029261  0.73732251    -0.15700
C946        C  0.06895631  0.92785658  0.73030765     0.36700
N947        N  0.08622132  0.91711418  0.69725268    -0.89900
H948        H  0.11340589  0.95442786  0.74972202     0.17800
H949        H  0.48764210  0.92602135  0.77713930     0.17800
N950        N  0.02116123  0.96064011  0.82969499    -0.88900
H951        H  0.09233324  0.93887527  0.68228197     0.35200
H952        H  0.07036701  0.90272119  0.68056363     0.40300
H953        H  0.03463398  0.94896649  0.85124035     0.39900
H954        H  0.99610139  0.95181707  0.83109602     0.34800
C955        C  0.38469178  0.89949607  0.53490575    -0.27000
C956        C  0.40885591  0.91920678  0.55314413    -0.15000
C957        C  0.42477093  0.94615400  0.53460213     0.35600
C958        C  0.41667246  0.95241052  0.49774907    -0.26400
C959        C  0.39344498  0.93196137  0.47897507    -0.15700
C960        C  0.37715825  0.90542836  0.49773852     0.36700
N961        N  0.35281300  0.88472759  0.47929425    -0.89900
H962        H  0.37250198  0.87876675  0.54918299     0.17800
H963        H  0.42914516  0.97292577  0.48337690     0.17800
N964        N  0.44916917  0.96693169  0.55327226    -0.88900
H965        H  0.32955746  0.88666841  0.49348110     0.35200
H966        H  0.36143356  0.85951491  0.48087192     0.40300
H967        H  0.43615089  0.97985941  0.57428314     0.39900
H968        H  0.45878265  0.98541346  0.53554205     0.34800
C969        C  0.34332194  0.96661831  0.66097345    -0.27000
C970        C  0.37486087  0.97171976  0.67876249    -0.15000
C971        C  0.38486059  0.00471586  0.68708206     0.35600
C972        C  0.35173900  0.52909980  0.68050124    -0.26400
C973        C  0.32890990  0.52605374  0.65047565    -0.15700
C974        C  0.32384417  0.49368153  0.63523926     0.36700
N975        N  0.30030671  0.48932419  0.60535970    -0.89900
H976        H  0.33582642  0.94099473  0.65440093     0.17800
H977        H  0.35519420  0.55356133  0.69337978     0.17800
N978        N  0.41680577  0.01021584  0.70557671    -0.88900
H979        H  0.28770151  0.96262666  0.62575955     0.35200
H980        H  0.27564968  0.49391967  0.61564717     0.40300
H981        H  0.41489324  0.99971604  0.73191909     0.39900
H982        H  0.39698707  0.53087086  0.73042036     0.34800
C983        C  0.34820690  0.75535949  0.59471640    -0.27000
C984        C  0.36092717  0.72268824  0.60113202    -0.15000
C985        C  0.39468669  0.71817854  0.61465320     0.35600
C986        C  0.41361515  0.74679738  0.62509268    -0.26400
C987        C  0.39975480  0.77966646  0.62123476    -0.15700
C988        C  0.36730371  0.78376229  0.60382035     0.36700
N989        N  0.35256334  0.81670108  0.59682298    -0.89900
H990        H  0.32245879  0.75892168  0.58410030     0.17800
H991        H  0.43870620  0.74336114  0.63733316     0.17800
N992        N  0.40909352  0.68465227  0.61921054    -0.88900
H993        H  0.32918220  0.81860464  0.61078392     0.35200
H994        H  0.34768967  0.81875754  0.56861690     0.40300
H995        H  0.39558306  0.67265108  0.64014163     0.39900
H996        H  0.43446311  0.68589000  0.62822064     0.34800
C997        C  0.06371973  0.81012428  0.54609395    -0.27000
C998        C  0.06697773  0.83448415  0.51793983    -0.15000
C999        C  0.05565943  0.86821874  0.52480811     0.35600
C1000       C  0.04009311  0.87617708  0.55872391    -0.26400
C1001       C  0.03538969  0.85128794  0.58587201    -0.15700
C1002       C  0.04798392  0.81816380  0.57967098     0.36700
N1003       N  0.54765464  0.79806883  0.60806217    -0.89900
H1004       H  0.07249303  0.78421498  0.54180134     0.17800
H1005       H  0.03030726  0.90169717  0.56337484     0.17800
N1006       N  0.05903493  0.89410760  0.49718536    -0.88900
H1007       H  0.57271252  0.79020674  0.61415525     0.35200
H1008       H  0.53453406  0.77714023  0.59800761     0.40300
H1009       H  0.08518415  0.89840777  0.49371536     0.39900
H1010       H  0.04810741  0.91704130  0.50613786     0.34800
C1011       C  0.43397297  0.81703417  0.79529119    -0.27000
C1012       C  0.40859764  0.82595860  0.76931980    -0.15000
C1013       C  0.37406531  0.81876139  0.77780430     0.35600
C1014       C  0.36615970  0.80164904  0.81087590    -0.26400
C1015       C  0.39183740  0.79148670  0.83591671    -0.15700
C1016       C  0.42605086  0.79995065  0.82804406     0.36700
N1017       N  0.45311269  0.79099475  0.85299699    -0.89900
H1018       H  0.46060333  0.82251585  0.78988512     0.17800
H1019       H  0.33978958  0.79532493  0.81654873     0.17800
N1020       N  0.34714307  0.82813627  0.75268341    -0.88900
H1021       H  0.46543033  0.81321845  0.86069599     0.35200
H1022       H  0.47082229  0.77556174  0.83899498     0.40300
H1023       H  0.34571020  0.85463755  0.75191338     0.39900
H1024       H  0.32346362  0.81999706  0.76245561     0.34800
O1025       O  0.50854210  0.39571803  0.63055054    -0.86000
O1026       O  0.95573796  0.40293695  0.59667039    -0.83000
C1027       C  0.92440910  0.40362302  0.58861677     0.97500
O1028       O  0.90156012  0.39985087  0.61297036    -0.83100
O1029       O  0.90733143  0.33601484  0.63404370    -0.85700
C1030       C  0.91720766  0.30825482  0.64704649     1.02000
O1031       O  0.94108471  0.30742776  0.67075487    -0.78500
O1032       O  0.49458578  0.34218569  0.63247090    -0.78700
C1033       C  0.51162347  0.36569273  0.61825113     1.01900
O1034       O  0.98842394  0.42698387  0.69503816    -0.86000
O1035       O  0.93198012  0.44760115  0.65157128    -0.83100
C1036       C  0.90434970  0.44701818  0.66985636     0.97500
O1037       O  0.89748115  0.42109414  0.68857814    -0.83100
O1038       O  0.89909804  0.35303886  0.71102927    -0.85700
C1039       C  0.91943232  0.34701162  0.73761133     1.02000
O1040       O  0.95123952  0.35066171  0.73338696    -0.78500
O1041       O  0.50791317  0.37747316  0.70125957    -0.78700
C1042       C  0.50486850  0.40826423  0.71150916     1.01900
Cr1043     Cr  0.97140529  0.41420304  0.64619936     1.93700
Cr1044     Cr  0.90474983  0.37755976  0.66247282     1.93200
Cr1045     Cr  0.97384249  0.34530609  0.68507424     1.39100
O1046       O  0.94978296  0.37923953  0.66529458    -1.23700
O1047       O  0.63015621  0.23469558  0.38020564    -0.86000
O1048       O  0.63370675  0.29315809  0.34051132    -0.83000
C1049       C  0.62814581  0.32331292  0.33030008     0.97500
O1050       O  0.62287921  0.34640804  0.35386011    -0.83100
O1051       O  0.55996135  0.33204325  0.37843033    -0.85700
C1052       C  0.53513457  0.31976719  0.39519856     1.02000
O1053       O  0.54019209  0.29869490  0.42105791    -0.78500
O1054       O  0.57565705  0.24480476  0.38753572    -0.78700
C1055       C  0.59958356  0.22904738  0.37105420     1.01900
O1056       O  0.66702236  0.26668701  0.43884532    -0.86000
O1057       O  0.67690467  0.32285402  0.39403190    -0.83100
C1058       C  0.67328962  0.34996005  0.41231122     0.92700
O1059       O  0.64517705  0.35733934  0.42758090    -0.83100
O1060       O  0.57924559  0.34678821  0.45418044    -0.85700
C1061       C  0.57965010  0.32767639  0.48246311     1.02000
O1062       O  0.58861479  0.29684703  0.47951493    -0.78500
O1063       O  0.62035981  0.23910069  0.45217137    -0.78700
C1064       C  0.65188720  0.24476553  0.45802457     1.01900
Cr1065     Cr  0.64941083  0.28068998  0.39010891     1.93700
Cr1066     Cr  0.60241824  0.34222516  0.40435515     1.93200
Cr1067     Cr  0.58333303  0.27152352  0.43319296     1.39100
O1068       O  0.61210706  0.29846299  0.40997150    -1.23700
O1069       O  0.97649743  0.10587765  0.12952197    -0.86000
O1070       O  0.53709151  0.09472893  0.09768628    -0.83000
C1071       C  0.56886399  0.09364975  0.09200493     0.97500
O1072       O  0.58998681  0.09492695  0.11856504    -0.83100
O1073       O  0.58641204  0.16032408  0.13640679    -0.85700
C1074       C  0.57467353  0.18875652  0.14525325     1.02000
O1075       O  0.54832642  0.19137576  0.16576986    -0.78500
O1076       O  0.99185833  0.15862804  0.13151037    -0.78700
C1077       C  0.97431268  0.13577220  0.11692458     1.01900
O1078       O  0.00164440  0.07149892  0.19440334    -0.86000
O1079       O  0.55492889  0.05118987  0.15731541    -0.83100
C1080       C  0.57935366  0.05138352  0.18017752     0.97500
O1081       O  0.58620152  0.07834829  0.19668864    -0.83100
O1082       O  0.58601085  0.14695928  0.21477608    -0.85700
C1083       C  0.56315391  0.15479041  0.23851103     1.02000
O1084       O  0.53204139  0.15212295  0.23046127    -0.78500
O1085       O  0.97714020  0.12186068  0.20066790    -0.78700
C1086       C  0.98041129  0.09081868  0.21049183     1.01900
Cr1087     Cr  0.51744351  0.08513959  0.14603799     1.93700
Cr1088     Cr  0.58364405  0.12013396  0.16693943     1.93200
Cr1089     Cr  0.51355484  0.15546912  0.18034143     1.39100
O1090       O  0.53837026  0.12031085  0.16497204    -1.23700
O1091       O  0.85020049  0.26883097  0.87844374    -0.86000
O1092       O  0.83998399  0.20791280  0.84490329    -0.83000
C1093       C  0.84059530  0.17654463  0.83855136     0.97500
O1094       O  0.84293600  0.15514344  0.86441306    -0.83100
O1095       O  0.90806426  0.16140590  0.88229345    -0.85700
C1096       C  0.93586659  0.17466134  0.89032265     1.02000
O1097       O  0.93654179  0.19853419  0.91380643    -0.78500
O1098       O  0.90394014  0.25397554  0.88269182    -0.78700
C1099       C  0.88078965  0.27183921  0.86788062     1.01900
O1100       O  0.81430796  0.24471537  0.94124273    -0.86000
O1101       O  0.79573076  0.18704246  0.90248421    -0.83100
C1102       C  0.79722793  0.16121482  0.92319265     0.97500
O1103       O  0.82442683  0.15406799  0.94032478    -0.83100
O1104       O  0.89391341  0.15645870  0.96007411    -0.85700
C1105       C  0.90013958  0.17781486  0.98523715     1.02000
O1106       O  0.89534398  0.20901664  0.97937687    -0.78500
O1107       O  0.86502514  0.26672516  0.95094955    -0.78700
C1108       C  0.83291008  0.26576928  0.95761452     1.01900
Cr1109     Cr  0.82764192  0.22561622  0.89356009     1.93700
Cr1110     Cr  0.86721613  0.16041306  0.91248219     1.93200
Cr1111     Cr  0.89764014  0.23031541  0.93039870     1.39100
O1112       O  0.86401660  0.20534518  0.91302069    -1.23700
O1113       O  0.60600470  0.47996555  0.89101172    -0.86000
O1114       O  0.58750035  0.04050578  0.92848864    -0.83000
C1115       C  0.58922713  0.07114790  0.93773600     0.97500
O1116       O  0.59164128  0.09401154  0.91327333    -0.83100
O1117       O  0.65670276  0.08523027  0.89562255    -0.85700
C1118       C  0.68494631  0.07596002  0.88294991     1.02000
O1119       O  0.68591329  0.05330960  0.85797927    -0.78500
O1120       O  0.65945280  0.49406947  0.88558899    -0.78700
C1121       C  0.63687254  0.47649736  0.90108331     1.01900
O1122       O  0.56806724  0.50894988  0.83066016    -0.86000
O1123       O  0.54473531  0.06633438  0.87045190    -0.83100
C1124       C  0.54730838  0.09301925  0.85112540     0.97500
O1125       O  0.57524330  0.10006547  0.83602454    -0.83100
O1126       O  0.64419446  0.09581172  0.81715740    -0.85700
C1127       C  0.64874687  0.07551638  0.79022983     1.02000
O1128       O  0.64296251  0.04443125  0.79425794    -0.78500
O1129       O  0.61746195  0.48365085  0.81921378    -0.78700
C1130       C  0.58509865  0.48631099  0.81402266     1.01900
Cr1131     Cr  0.57668967  0.02610959  0.87822712     1.93700
Cr1132     Cr  0.61678036  0.09055702  0.86471714     1.93200
Cr1133     Cr  0.64716360  0.02154511  0.84194631     1.39100
O1134       O  0.61323242  0.04621929  0.86077200    -1.23700
O1135       O  0.72318957  0.14529192  0.64592190    -0.86000
O1136       O  0.78417283  0.15027167  0.68121078    -0.83000
C1137       C  0.81557947  0.14783449  0.68846110     0.97500
O1138       O  0.83775874  0.14447407  0.66325470    -0.83100
O1139       O  0.82802850  0.08117598  0.64077078    -0.85700
C1140       C  0.81340720  0.05540886  0.62913962     1.02000
O1141       O  0.78962664  0.05811123  0.60547526    -0.78500
O1142       O  0.73609315  0.09185685  0.64000094    -0.78700
C1143       C  0.72013244  0.11514135  0.65680287     1.01900
O1144       O  0.75114110  0.18243685  0.58551393    -0.86000
O1145       O  0.80860745  0.19523625  0.62712943    -0.83100
C1146       C  0.83500111  0.19404656  0.60703180     0.97500
O1147       O  0.84214846  0.16752591  0.58899953    -0.83100
O1148       O  0.83487709  0.10039795  0.56362342    -0.85700
C1149       C  0.81329744  0.09704528  0.53772161     1.02000
O1150       O  0.78191849  0.10308952  0.54359348    -0.78500
O1151       O  0.72509373  0.13467190  0.57359842    -0.78700
C1152       C  0.72925095  0.16626414  0.56740827     1.01900
Cr1153     Cr  0.76813363  0.16579265  0.63305671     1.93700
Cr1154     Cr  0.83207829  0.12371313  0.61340901     1.93200
Cr1155     Cr  0.75988896  0.09922479  0.59223642     1.39100
O1156       O  0.78697528  0.12980088  0.61197947    -1.23700
O1157       O  0.87691188  0.02242004  0.39015391    -0.86000
O1158       O  0.88786973  0.46561321  0.43015798    -0.83000
C1159       C  0.88725944  0.43502726  0.44010759     0.97500
O1160       O  0.88273447  0.41169291  0.41690742    -0.83100
O1161       O  0.81800283  0.42098436  0.39588024    -0.85700
C1162       C  0.79070489  0.43113233  0.38135085     1.02000
O1163       O  0.79182922  0.45272331  0.35538065    -0.78500
O1164       O  0.82303312  0.01053685  0.38494947    -0.78700
C1165       C  0.84625275  0.02690256  0.40062726     1.01900
O1166       O  0.91396922  0.99076459  0.33066930    -0.86000
O1167       O  0.93182615  0.43769598  0.37615259    -0.83100
C1168       C  0.92997582  0.40989172  0.35901033     0.97500
O1169       O  0.90313909  0.40286204  0.34167442    -0.83100
O1170       O  0.83468965  0.40700092  0.31996814    -0.85700
C1171       C  0.83104867  0.42555917  0.29159274     1.02000
O1172       O  0.83695528  0.45693348  0.29312066    -0.78500
O1173       O  0.86528005  0.01683716  0.31786544    -0.78700
C1174       C  0.89752346  0.01305307  0.31264317     1.01900
Cr1175     Cr  0.90036695  0.47825792  0.37974551     1.93700
Cr1176     Cr  0.85985232  0.41390085  0.36766049     1.93200
Cr1177     Cr  0.83173029  0.48250349  0.33960890     1.39100
O1178       O  0.86424376  0.45799136  0.36159330    -1.23700
O1179       O  0.73697703  0.35327697  0.16652477    -0.86000
O1180       O  0.67420308  0.32636500  0.16444788    -0.83000
C1181       C  0.65302462  0.34792787  0.17714770     0.97500
O1182       O  0.64359109  0.37353224  0.15845144    -0.83100
O1183       O  0.65012373  0.42657745  0.10909373    -0.85700
C1184       C  0.66805282  0.44213092  0.13185989     1.02000
O1185       O  0.69954023  0.43469455  0.13448575    -0.78500
O1186       O  0.75842755  0.39467451  0.13466589    -0.78700
C1187       C  0.75735093  0.37747578  0.16391650     1.01900
O1188       O  0.75098983  0.32871069  0.09254347    -0.86000
O1189       O  0.68510240  0.30231865  0.09189661    -0.83100
C1190       C  0.65283028  0.30192148  0.09438716     0.97500
O1191       O  0.63644948  0.32903228  0.09985376    -0.83100
O1192       O  0.65406535  0.38084971  0.04954995    -0.85700
C1193       C  0.67087186  0.40521548  0.03602325     1.02000
O1194       O  0.69238308  0.42063333  0.05574409    -0.78500
O1195       O  0.74609999  0.37579574  0.05969482    -0.78700
C1196       C  0.75798885  0.34607934  0.06422423     1.01900
Cr1197     Cr  0.71088658  0.33097119  0.12700920     1.93700
Cr1198     Cr  0.64967604  0.37681652  0.10418259     1.93200
Cr1199     Cr  0.72200406  0.40385313  0.09717808     1.39100
O1200       O  0.69449497  0.37002276  0.10907494    -1.23700
C1201       C  0.80224058  0.41388178  0.19225201    -0.27000
C1202       C  0.77951193  0.38668612  0.19576674    -0.15000
C1203       C  0.77669187  0.37052896  0.23042941     0.35600
C1204       C  0.79530865  0.38248974  0.26059474    -0.26400
C1205       C  0.81650948  0.41079207  0.25748900    -0.15700
C1206       C  0.82069034  0.42609721  0.22262336     0.36700
N1207       N  0.84324127  0.45427700  0.21822323    -0.89900
H1208       H  0.80505148  0.42633874  0.16585934     0.17800
H1209       H  0.79173544  0.37043074  0.28712128     0.17800
N1210       N  0.75407849  0.34268155  0.23571565    -0.88900
H1211       H  0.84315049  0.46286700  0.19099072     0.35200
H1212       H  0.86812844  0.44549095  0.22368762     0.40300
H1213       H  0.73621028  0.34946531  0.25597797     0.39900
H1214       H  0.76848081  0.32195167  0.24544081     0.34800
C1215       C  0.79797060  0.07831598  0.47414730    -0.27000
C1216       C  0.82374466  0.08362700  0.50055624    -0.15000
C1217       C  0.85777344  0.07358034  0.49129050     0.35600
C1218       C  0.86450887  0.05705476  0.45773271    -0.26400
C1219       C  0.83820963  0.04948587  0.43273070    -0.15700
C1220       C  0.80458681  0.06131055  0.44098199     0.36700
N1221       N  0.77636401  0.05641907  0.41653569    -0.89900
H1222       H  0.77179712  0.08626878  0.47976834     0.17800
H1223       H  0.89053489  0.04863321  0.45205535     0.17800
N1224       N  0.88609730  0.07906122  0.51539073    -0.88900
H1225       H  0.77140356  0.03053335  0.41463629     0.35200
H1226       H  0.78277767  0.06592524  0.39059281     0.40300
H1227       H  0.88234968  0.06548189  0.53974025     0.39900
H1228       H  0.88734103  0.10497304  0.52117713     0.34800
C1229       C  0.67958675  0.45525332  0.94692924    -0.27000
C1230       C  0.64649302  0.45328736  0.93209961    -0.15000
C1231       C  0.62281831  0.43151706  0.94927562     0.35600
C1232       C  0.63183293  0.41426151  0.98194775    -0.26400
C1233       C  0.66410117  0.41834975  0.99816358    -0.15700
C1234       C  0.68871195  0.43802942  0.97944616     0.36700
N1235       N  0.72279975  0.44107629  0.99386830    -0.89900
H1236       H  0.69828338  0.47131074  0.93383654     0.17800
H1237       H  0.61285557  0.39889588  0.99556557     0.17800
N1238       N  0.58931108  0.42731478  0.93421775    -0.88900
H1239       H  0.73748762  0.45694778  0.97727998     0.35200
H1240       H  0.73447947  0.41704286  0.99280449     0.40300
H1241       H  0.56649180  0.95562877  0.96937755     0.39900
H1242       H  0.56793252  0.92011611  0.94328972     0.34800
C1243       C  0.67901594  0.11915252  0.75215840    -0.27000
C1244       C  0.66346974  0.08728892  0.75446140    -0.15000
C1245       C  0.66520589  0.06567321  0.72331421     0.35600
C1246       C  0.68273915  0.07580757  0.69151018    -0.26400
C1247       C  0.69885246  0.10719138  0.68956292    -0.15700
C1248       C  0.69683124  0.12911607  0.72026772     0.36700
N1249       N  0.71438834  0.16072509  0.72003879    -0.89900
H1250       H  0.67866078  0.13591551  0.77574472     0.17800
H1251       H  0.68419672  0.05863332  0.66829417     0.17800
N1252       N  0.64973930  0.03297819  0.72382900    -0.88900
H1253       H  0.73193290  0.16044417  0.74174675     0.35200
H1254       H  0.69643353  0.18013960  0.72502127     0.40300
H1255       H  0.66888064  0.01465140  0.71897720     0.39900
H1256       H  0.63212509  0.03198363  0.70225585     0.34800
C1257       C  0.78101347  0.29799643  0.97795420    -0.27000
C1258       C  0.81590566  0.29006880  0.98347925    -0.15000
C1259       C  0.83269874  0.30398285  0.01429637     0.35600
C1260       C  0.81368604  0.32346550  0.04000387    -0.26400
C1261       C  0.77859815  0.32998307  0.03487396    -0.15700
C1262       C  0.76242552  0.31780621  0.00304131     0.36700
N1263       N  0.72673087  0.32409701  0.99627064    -0.89900
H1264       H  0.76775841  0.28817178  0.95417893     0.17800
H1265       H  0.82603160  0.33290771  0.06452067     0.17800
N1266       N  0.86851812  0.29733100  0.02012431    -0.88900
H1267       H  0.72246361  0.35032443  0.99507029     0.35200
H1268       H  0.71268039  0.31439458  0.01829866     0.40300
H1269       H  0.87138208  0.27135451  0.02483479     0.39900
H1270       H  0.87691019  0.30946962  0.04395498     0.34800
C1271       C  0.85733572  0.18064999  0.77373395    -0.27000
C1272       C  0.83732846  0.16507092  0.80073183    -0.15000
C1273       C  0.81258035  0.14119839  0.79089025     0.35600
C1274       C  0.80704363  0.13471660  0.75364851    -0.26400
C1275       C  0.82609875  0.15130958  0.72658480    -0.15700
C1276       C  0.85201826  0.17392671  0.73647298     0.36700
N1277       N  0.87146245  0.19124613  0.70875371    -0.89900
H1278       H  0.87633584  0.19894185  0.78176984     0.17800
H1279       H  0.78714485  0.11739228  0.74558104     0.17800
N1280       N  0.79179721  0.12534947  0.81847018    -0.88900
H1281       H  0.88970331  0.20678732  0.72085634     0.35200
H1282       H  0.85461549  0.20736340  0.69443973     0.40300
H1283       H  0.80771758  0.10868463  0.83321284     0.39900
H1284       H  0.77310347  0.11040499  0.80626909     0.34800
C1285       C  0.77591603  0.10413338  0.90643844    -0.27000
C1286       C  0.76908337  0.13677738  0.92077846    -0.15000
C1287       C  0.73504542  0.14831465  0.92377926     0.35600
C1288       C  0.70857979  0.12741752  0.91202042    -0.26400
C1289       C  0.71510618  0.09517189  0.89624641    -0.15700
C1290       C  0.74924293  0.08353164  0.89352832     0.36700
N1291       N  0.75700547  0.05131359  0.87719035    -0.89900
H1292       H  0.80221372  0.09553834  0.90290693     0.17800
H1293       H  0.68255571  0.13718003  0.91406738     0.17800
N1294       N  0.72762887  0.18181558  0.93757538    -0.88900
H1295       H  0.77046170  0.03661413  0.89647216     0.35200
H1296       H  0.77314823  0.05531800  0.85467815     0.40300
H1297       H  0.73548804  0.18246296  0.96500339     0.39900
H1298       H  0.70121586  0.18680240  0.93753793     0.34800
C1299       C  0.96226294  0.13258446  0.84738421    -0.27000
C1300       C  0.96704732  0.15903987  0.87309605    -0.15000
C1301       C  0.00070149  0.16640067  0.88423307     0.35600
C1302       C  0.52547307  0.14936014  0.87127957    -0.26400
C1303       C  0.51959768  0.11873435  0.85262772    -0.15700
C1304       C  0.98923616  0.11087925  0.83687731     0.36700
N1305       N  0.98308215  0.08267559  0.81316966    -0.89900
H1306       H  0.93695875  0.12708743  0.83704335     0.17800
H1307       H  0.55136096  0.15539201  0.87935237     0.17800
N1308       N  0.50440717  0.20103524  0.90309283    -0.88900
H1309       H  0.97287126  0.09210002  0.78853470     0.35200
H1310       H  0.96462491  0.06751092  0.82557955     0.40300
H1311       H  0.00076485  0.21649900  0.89493285     0.39900
H1312       H  0.53068295  0.20383374  0.90730643     0.34800
C1313       C  0.95337257  0.03534755  0.29045688    -0.27000
C1314       C  0.91741400  0.03569172  0.28733451    -0.15000
C1315       C  0.90213049  0.05756459  0.26083350     0.35600
C1316       C  0.92312641  0.07749419  0.23770550    -0.26400
C1317       C  0.95905771  0.07577020  0.24009812    -0.15700
C1318       C  0.97420157  0.05512698  0.26781394     0.36700
N1319       N  0.50681054  0.05985711  0.26969117    -0.89900
H1320       H  0.96583432  0.01951280  0.31101908     0.17800
H1321       H  0.91145646  0.09304745  0.21638672     0.17800
N1322       N  0.86557472  0.05876914  0.25657439    -0.88900
H1323       H  0.51536561  0.03478035  0.26633726     0.35200
H1324       H  0.51297593  0.06751073  0.29635960     0.40300
H1325       H  0.85807863  0.03506873  0.24692489     0.39900
H1326       H  0.85848524  0.07644117  0.23636028     0.34800
C1327       C  0.94135837  0.17857130  0.08064733    -0.27000
C1328       C  0.95162174  0.14456152  0.08519560    -0.15000
C1329       C  0.94248094  0.12094517  0.05762044     0.35600
C1330       C  0.92442658  0.13203415  0.02629220    -0.26400
C1331       C  0.91530609  0.16640062  0.02112039    -0.15700
C1332       C  0.92358564  0.18966849  0.04926110     0.36700
N1333       N  0.91481425  0.22492759  0.04603893    -0.89900
H1334       H  0.94785130  0.19713660  0.10133977     0.17800
H1335       H  0.91862525  0.11364427  0.00519248     0.17800
N1336       N  0.95243915  0.08587206  0.05956063    -0.88900
H1337       H  0.93737920  0.23877767  0.04714759     0.35200
H1338       H  0.89974805  0.23172554  0.06876114     0.40300
H1339       H  0.94164445  0.07521439  0.08312471     0.39900
H1340       H  0.97911386  0.08410481  0.06120352     0.34800
C1341       C  0.57857341  0.24299607  0.11005498    -0.27000
C1342       C  0.59419994  0.21822165  0.13225866    -0.15000
C1343       C  0.63008514  0.21927323  0.13805587     0.35600
C1344       C  0.64942513  0.24464822  0.12152704    -0.26400
C1345       C  0.63385699  0.27007806  0.10005818    -0.15700
C1346       C  0.59802147  0.26897655  0.09414358     0.36700
N1347       N  0.58117611  0.29467225  0.07254171    -0.89900
H1348       H  0.55130104  0.24206328  0.10480175     0.17800
H1349       H  0.67646088  0.24592958  0.12796560     0.17800
N1350       N  0.64734925  0.19607068  0.16247617    -0.88900
H1351       H  0.56259432  0.30655860  0.08902353     0.35200
H1352       H  0.56867240  0.28280877  0.05079142     0.40300
H1353       H  0.64581051  0.17147879  0.15209079     0.39900
H1354       H  0.63523433  0.19710794  0.18813529     0.34800
C1355       C  0.65954071  0.99845905  0.16530062    -0.27000
C1356       C  0.65085625  0.46878432  0.15388246    -0.15000
C1357       C  0.61785614  0.46288344  0.16843302     0.35600
C1358       C  0.59775930  0.48986146  0.18138242    -0.26400
C1359       C  0.60292139  0.02158927  0.18138163    -0.15700
C1360       C  0.63893434  0.02532003  0.17933861     0.36700
N1361       N  0.65404093  0.05722467  0.18829364    -0.89900
H1362       H  0.68668160  0.00207636  0.16097016     0.17800
H1363       H  0.57178222  0.48516042  0.19040519     0.17800
N1364       N  0.60353353  0.42973066  0.16786371    -0.88900
H1365       H  0.68051061  0.05615577  0.18392785     0.35200
H1366       H  0.65046869  0.06114037  0.21647930     0.40300
H1367       H  0.58144198  0.43065652  0.15166258     0.39900
H1368       H  0.59618730  0.42350053  0.19467485     0.34800
C1369       C  0.57012089  0.11533269  0.02860986    -0.27000
C1370       C  0.58042847  0.09019628  0.05377359    -0.15000
C1371       C  0.59590090  0.05997999  0.04104897     0.35600
C1372       C  0.59944501  0.05494588  0.00294319    -0.26400
C1373       C  0.58789092  0.07960119  0.97743640    -0.15700
C1374       C  0.57386398  0.11055151  0.99073689     0.36700
N1375       N  0.56142275  0.13680174  0.96669085    -0.89900
H1376       H  0.55774263  0.13840085  0.03850292     0.17800
H1377       H  0.61053067  0.03125711  0.99309254     0.17800
N1378       N  0.60576801  0.03372775  0.06664671    -0.88900
H1379       H  0.54287597  0.12669155  0.94935982     0.35200
H1380       H  0.58181089  0.14562959  0.95089921     0.40300
H1381       H  0.62560188  0.04302870  0.08284492     0.39900
H1382       H  0.61576533  0.01260170  0.05270612     0.34800
C1383       C  0.65758764  0.19491358  0.50137788    -0.27000
C1384       C  0.67140385  0.22475641  0.48642813    -0.15000
C1385       C  0.70390281  0.23495193  0.49887641     0.35600
C1386       C  0.72192177  0.21526678  0.52477537    -0.26400
C1387       C  0.70846457  0.18528668  0.53942757    -0.15700
C1388       C  0.67560294  0.17523263  0.52786689     0.36700
N1389       N  0.66029861  0.14558004  0.54345946    -0.89900
H1390       H  0.63257277  0.18686528  0.49243612     0.17800
H1391       H  0.74690448  0.22371486  0.53345046     0.17800
N1392       N  0.71875058  0.26568755  0.48588394    -0.88900
H1393       H  0.63624146  0.14156528  0.53183884     0.35200
H1394       H  0.65610705  0.15034386  0.57141283     0.40300
H1395       H  0.74241791  0.25964154  0.47388175     0.39900
H1396       H  0.72314118  0.28126913  0.50858307     0.34800
C1397       C  0.60718599  0.17599436  0.28288391    -0.27000
C1398       C  0.57262367  0.16937364  0.27526723    -0.15000
C1399       C  0.54773193  0.17921803  0.30212360     0.35600
C1400       C  0.55762016  0.19664974  0.33380243    -0.26400
C1401       C  0.59180450  0.20515105  0.34024586    -0.15700
C1402       C  0.61710328  0.19348474  0.31495364     0.36700
N1403       N  0.65266903  0.20043337  0.32097140    -0.89900
H1404       H  0.62665477  0.16835959  0.26317704     0.17800
H1405       H  0.53787478  0.20473661  0.35301111     0.17800
N1406       N  0.51193092  0.17283081  0.29806209    -0.88900
H1407       H  0.66761547  0.19168177  0.29895656     0.35200
H1408       H  0.66052491  0.18639071  0.34398438     0.40300
H1409       H  0.50849713  0.14680058  0.29452793     0.39900
H1410       H  0.00465120  0.17338577  0.28050755     0.34800
C1411       C  0.49001710  0.33788182  0.35105490    -0.27000
C1412       C  0.50126732  0.33507129  0.38771720    -0.15000
C1413       C  0.98967554  0.35447526  0.41516962     0.35600
C1414       C  0.96494784  0.37870880  0.40453547    -0.26400
C1415       C  0.95580210  0.38324118  0.36741468    -0.15700
C1416       C  0.97059229  0.36200152  0.34059749     0.36700
N1417       N  0.45341237  0.36435502  0.30361637    -0.89900
H1418       H  0.50258061  0.32295502  0.32980456     0.17800
H1419       H  0.95312377  0.39463544  0.42540966     0.17800
N1420       N  0.00045481  0.35213118  0.45293439    -0.88900
H1421       H  0.44414108  0.34081491  0.29545670     0.35200
H1422       H  0.98354901  0.37165342  0.28789136     0.40300
H1423       H  0.99409567  0.32804282  0.46257744     0.39900
H1424       H  0.98691620  0.36961686  0.46922013     0.34800
C1425       C  0.69703120  0.40667709  0.39740500    -0.27000
C1426       C  0.70184712  0.37388345  0.41209949    -0.15000
C1427       C  0.73513842  0.36164792  0.41894448     0.35600
C1428       C  0.76306785  0.38171218  0.40992346    -0.26400
C1429       C  0.75885278  0.41382314  0.39315675    -0.15700
C1430       C  0.72518005  0.42656189  0.38733155     0.36700
N1431       N  0.71871990  0.45901157  0.37076950    -0.89900
H1432       H  0.67135718  0.41590415  0.39132775     0.17800
H1433       H  0.78850072  0.37124920  0.41469565     0.17800
N1434       N  0.74039066  0.32823407  0.43399973    -0.88900
H1435       H  0.72870227  0.45873902  0.34406690     0.35200
H1436       H  0.73131357  0.47737764  0.38610859     0.40300
H1437       H  0.73028496  0.32856902  0.46059840     0.39900
H1438       H  0.76653099  0.32247833  0.43657198     0.34800
C1439       C  0.63723450  0.37003087  0.23899195    -0.27000
C1440       C  0.64026043  0.34251947  0.21477088    -0.15000
C1441       C  0.63569314  0.30934423  0.22817405     0.35600
C1442       C  0.63010010  0.30405014  0.26562783    -0.26400
C1443       C  0.62937511  0.33124764  0.29049955    -0.15700
C1444       C  0.63184551  0.36471976  0.27677176     0.36700
N1445       N  0.63040687  0.39327858  0.30104550    -0.89900
H1446       H  0.64127874  0.39557114  0.22904944     0.17800
H1447       H  0.62739772  0.27820609  0.27532180     0.17800
N1448       N  0.63747792  0.28077117  0.20389877    -0.88900
H1449       H  0.61038423  0.40933949  0.29244059     0.35200
H1450       H  0.65329080  0.40645590  0.29840252     0.40300
H1451       H  0.61440787  0.26781079  0.20583198     0.39900
H1452       H  0.65712094  0.26447977  0.21299911     0.34800
C1453       C  0.58202366  0.44619354  0.75987032    -0.27000
C1454       C  0.56596245  0.46234981  0.78996424    -0.15000
C1455       C  0.53052588  0.45677380  0.79602998     0.35600
C1456       C  0.51181280  0.43764091  0.77073777    -0.26400
C1457       C  0.52745061  0.42287784  0.73993835    -0.15700
C1458       C  0.56310499  0.42667405  0.73482528     0.36700
N1459       N  0.58031224  0.41250364  0.70347141    -0.89900
H1460       H  0.60905220  0.44993159  0.75486266     0.17800
H1461       H  0.98602066  0.43605107  0.77299955     0.17800
N1462       N  0.51340446  0.47078873  0.82776547    -0.88900
H1463       H  0.56868036  0.42222003  0.67972010     0.35200
H1464       H  0.57708090  0.38623214  0.70388667     0.40300
H1465       H  0.52402526  0.45908139  0.85103661     0.39900
H1466       H  0.48740556  0.46489506  0.82772070     0.34800
C1467       C  0.88925507  0.39245548  0.53364062    -0.27000
C1468       C  0.91435670  0.41168191  0.55095083    -0.15000
C1469       C  0.92943580  0.43904195  0.53244486     0.35600
C1470       C  0.91965610  0.44619997  0.49634282    -0.26400
C1471       C  0.89526040  0.42651778  0.47842724    -0.15700
C1472       C  0.87983950  0.39925885  0.49709571     0.36700
N1473       N  0.85418052  0.37929067  0.47941722    -0.89900
H1474       H  0.87760506  0.37168907  0.54840868     0.17800
H1475       H  0.93149438  0.46705694  0.48191635     0.17800
N1476       N  0.95426134  0.45971296  0.55059368    -0.88900
H1477       H  0.84360705  0.36215094  0.49807341     0.35200
H1478       H  0.86642928  0.36452963  0.45932772     0.40300
H1479       H  0.94187188  0.47220331  0.57231969     0.39900
H1480       H  0.96308090  0.47860973  0.53289526     0.34800
C1481       C  0.87051956  0.47863452  0.62323102    -0.27000
C1482       C  0.87711549  0.47247256  0.66075408    -0.15000
C1483       C  0.85707938  0.48957082  0.68734012     0.35600
C1484       C  0.83330161  0.01507272  0.67805341    -0.26400
C1485       C  0.82850512  0.02238693  0.64034938    -0.15700
C1486       C  0.84671313  0.00329308  0.61402775     0.36700
N1487       N  0.84261572  0.01061049  0.57548154    -0.89900
H1488       H  0.88519973  0.46501520  0.60261457     0.17800
H1489       H  0.81982926  0.03038258  0.69833450     0.17800
N1490       N  0.86278373  0.48324304  0.72579512    -0.88900
H1491       H  0.85734564  0.49416024  0.55718968     0.35200
H1492       H  0.81767544  0.00420360  0.56819869     0.40300
H1493       H  0.85549863  0.45835021  0.73127302     0.39900
H1494       H  0.84550445  0.99803760  0.74409562     0.34800
C1495       C  0.84341274  0.25486906  0.61555014    -0.27000
C1496       C  0.85859130  0.22292813  0.60995396    -0.15000
C1497       C  0.89411767  0.21847071  0.61686810     0.35600
C1498       C  0.91346911  0.24632739  0.62927362    -0.26400
C1499       C  0.89767786  0.27806443  0.63556254    -0.15700
C1500       C  0.86212886  0.28191447  0.62898385     0.36700
N1501       N  0.84436399  0.31304577  0.63760107    -0.89900
H1502       H  0.81606204  0.25840777  0.61160460     0.17800
H1503       H  0.94066405  0.24321189  0.63433561     0.17800
N1504       N  0.91008491  0.18558632  0.61279383    -0.88900
H1505       H  0.82535280  0.30783507  0.65701164     0.35200
H1506       H  0.83241581  0.32201561  0.61368342     0.40300
H1507       H  0.89960061  0.16959948  0.63267941     0.39900
H1508       H  0.93625439  0.18676578  0.61853509     0.34800
C1509       C  0.56572854  0.31726060  0.54856642    -0.27000
C1510       C  0.56691794  0.34028344  0.51892606    -0.15000
C1511       C  0.55318130  0.37349257  0.52413973     0.35600
C1512       C  0.53699295  0.38191939  0.55773585    -0.26400
C1513       C  0.53407073  0.35802039  0.58622492    -0.15700
C1514       C  0.54940233  0.32570599  0.58175750     0.36700
N1515       N  0.02799118  0.28738877  0.60071492    -0.89900
H1516       H  0.57646802  0.29188502  0.54570384     0.17800
H1517       H  0.52516943  0.40679575  0.56101490     0.17800
N1518       N  0.55452166  0.39822629  0.49508689    -0.88900
H1519       H  0.04800479  0.27048150  0.60720424     0.35200
H1520       H  0.01015285  0.27443554  0.58485231     0.40300
H1521       H  0.58024078  0.40423671  0.49112750     0.39900
H1522       H  0.54196592  0.42072179  0.50286093     0.34800
C1523       C  0.92910740  0.33028926  0.80332769    -0.27000
C1524       C  0.90659607  0.33271445  0.77313290    -0.15000
C1525       C  0.87385795  0.31792148  0.77630978     0.35600
C1526       C  0.86559050  0.29936508  0.80820904    -0.26400
C1527       C  0.88901873  0.29530368  0.83720163    -0.15700
C1528       C  0.92059559  0.31187673  0.83511561     0.36700
N1529       N  0.94412127  0.31012665  0.86526982    -0.89900
H1530       H  0.95400028  0.34195597  0.80195961     0.17800
H1531       H  0.84114410  0.28684206  0.80980103     0.17800
N1532       N  0.84960980  0.32036856  0.74666912    -0.88900
H1533       H  0.94870999  0.33488223  0.87403098     0.35200
H1534       H  0.96722613  0.29969019  0.85565717     0.40300
H1535       H  0.84159013  0.34574814  0.74479752     0.39900
H1536       H  0.82770683  0.30647832  0.75262373     0.34800
O1537       O  0.51083552  0.89319926  0.63051180    -0.86000
O1538       O  0.95334472  0.90465489  0.59632878    -0.83000
C1539       C  0.92190003  0.90512011  0.58879623     0.97500
O1540       O  0.89950441  0.90110304  0.61361541    -0.83100
O1541       O  0.90538795  0.83692476  0.63249210    -0.85700
C1542       C  0.91626855  0.80860824  0.64286275     1.02000
O1543       O  0.94044690  0.80700240  0.66626751    -0.78500
O1544       O  0.49556010  0.84016352  0.63142546    -0.78700
C1545       C  0.51306630  0.86342293  0.61747107     1.01900
O1546       O  0.98920083  0.92577015  0.69423368    -0.86000
O1547       O  0.93148607  0.94782629  0.65340985    -0.83100
C1548       C  0.90412301  0.94686885  0.67204966     0.97500
O1549       O  0.89737556  0.92050548  0.69008186    -0.83100
O1550       O  0.89970869  0.85199757  0.71060935    -0.85700
C1551       C  0.92107577  0.84571928  0.73621210     1.02000
O1552       O  0.95272528  0.84854107  0.73039452    -0.78500
O1553       O  0.51003588  0.87412230  0.70132090    -0.78700
C1554       C  0.50769500  0.90495109  0.71178306     1.01900
Cr1555     Cr  0.97038817  0.91457537  0.64566281     1.93700
Cr1556     Cr  0.90394748  0.87761829  0.66246464     1.93200
Cr1557     Cr  0.97366686  0.84441150  0.68138647     1.39100
O1558       O  0.94912462  0.87909110  0.66394396    -1.23700
O1559       O  0.63278052  0.73612131  0.37593102    -0.86000
O1560       O  0.63661432  0.79582596  0.33848788    -0.83000
C1561       C  0.63035956  0.82614524  0.32935415     0.97500
O1562       O  0.62441439  0.84841030  0.35358432    -0.83100
O1563       O  0.56117121  0.83168577  0.37460551    -0.85700
C1564       C  0.53605016  0.81882585  0.39026034     1.02000
O1565       O  0.54066644  0.79744649  0.41593784    -0.78500
O1566       O  0.57778626  0.74453290  0.38286394    -0.78700
C1567       C  0.60236467  0.72956894  0.36666847     1.01900
O1568       O  0.66723391  0.76728142  0.43704115    -0.86000
O1569       O  0.67751386  0.82504274  0.39475428    -0.83100
C1570       C  0.67228491  0.85158020  0.41368489     0.92700
O1571       O  0.64363747  0.85734223  0.42848397    -0.83100
O1572       O  0.57732738  0.84531119  0.45169488    -0.85700
C1573       C  0.57819327  0.82590590  0.47969209     1.02000
O1574       O  0.58753943  0.79524182  0.47617493    -0.78500
O1575       O  0.62081624  0.73859381  0.44840874    -0.78700
C1576       C  0.65199579  0.74485698  0.45537319     1.01900
Cr1577     Cr  0.65097040  0.78223289  0.38822956     1.93700
Cr1578     Cr  0.60225056  0.84227030  0.40279971     1.93200
Cr1579     Cr  0.58382300  0.77072226  0.42907242     1.39100
O1580       O  0.61268980  0.79862007  0.40734899    -1.23700
O1581       O  0.97524778  0.60840000  0.13091555    -0.86000
O1582       O  0.53762308  0.59025463  0.09758519    -0.83000
C1583       C  0.56927044  0.59002527  0.09101359     0.97500
O1584       O  0.59083095  0.59197593  0.11701548    -0.83100
O1585       O  0.58534329  0.65730179  0.13247059    -0.85700
C1586       C  0.57391923  0.68571915  0.14150232     1.02000
O1587       O  0.54850149  0.68817178  0.16341448    -0.78500
O1588       O  0.99103149  0.66101330  0.13311341    -0.78700
C1589       C  0.97298896  0.63843141  0.11869000     1.01900
O1590       O  0.99960976  0.57378650  0.19582351    -0.86000
O1591       O  0.55834721  0.54845408  0.15759584    -0.83100
C1592       C  0.58345688  0.55041455  0.17941025     0.97500
O1593       O  0.58929795  0.57773763  0.19554502    -0.83100
O1594       O  0.58827267  0.64623926  0.21139422    -0.85700
C1595       C  0.56617027  0.65295220  0.23625208     1.02000
O1596       O  0.53486303  0.64953211  0.22951892    -0.78500
O1597       O  0.97620375  0.62468712  0.20221855    -0.78700
C1598       C  0.97863833  0.59351748  0.21170797     1.01900
Cr1599     Cr  0.51945086  0.58087786  0.14671047     1.93700
Cr1600     Cr  0.58504671  0.61823513  0.16457253     1.93200
Cr1601     Cr  0.51487220  0.65174390  0.17992287     1.39100
O1602       O  0.53988139  0.61695476  0.16433443    -1.23700
O1603       O  0.85190837  0.77072129  0.87856335    -0.86000
O1604       O  0.84299458  0.70973136  0.84399436    -0.83000
C1605       C  0.84297652  0.67837731  0.83743920     0.97500
O1606       O  0.84531112  0.65685932  0.86329243    -0.83100
O1607       O  0.90950934  0.66441087  0.88325577    -0.85700
C1608       C  0.93711792  0.67739697  0.89226832     1.02000
O1609       O  0.93735943  0.70076308  0.91636854    -0.78500
O1610       O  0.90529939  0.75562800  0.88443733    -0.78700
C1611       C  0.88276966  0.77358122  0.86879612     1.01900
O1612       O  0.81414747  0.74545215  0.93987347    -0.86000
O1613       O  0.79760347  0.68814153  0.90005952    -0.83100
C1614       C  0.79856771  0.66225316  0.92074669     0.97500
O1615       O  0.82516644  0.65533578  0.93899603    -0.83100
O1616       O  0.89409665  0.65838947  0.96092651    -0.85700
C1617       C  0.89914451  0.67982254  0.98641201     1.02000
O1618       O  0.89372898  0.71087479  0.98048473    -0.78500
O1619       O  0.86402825  0.76824264  0.95154285    -0.78700
C1620       C  0.83184430  0.76634949  0.95757466     1.01900
Cr1621     Cr  0.82912829  0.72713283  0.89242718     1.93700
Cr1622     Cr  0.86841770  0.66226202  0.91237697     1.93200
Cr1623     Cr  0.89765540  0.73219682  0.93182711     1.39100
O1624       O  0.86485693  0.70707665  0.91310866    -1.23700
O1625       O  0.60048529  0.98208594  0.89136391    -0.86000
O1626       O  0.59548145  0.53855923  0.92888642    -0.83000
C1627       C  0.59628102  0.56930178  0.93779787     0.97500
O1628       O  0.59889550  0.59210259  0.91335498    -0.83100
O1629       O  0.66308916  0.58062514  0.89384615    -0.85700
C1630       C  0.69069589  0.57243695  0.87906402     1.02000
O1631       O  0.69077218  0.55039391  0.85345787    -0.78500
O1632       O  0.65389168  0.99702128  0.88899154    -0.78700
C1633       C  0.63089133  0.97898386  0.90299360     1.01900
O1634       O  0.56477048  0.00958770  0.82907514    -0.86000
O1635       O  0.55105283  0.56520651  0.87261134    -0.83100
C1636       C  0.55319021  0.59175963  0.85297424     0.97500
O1637       O  0.58073101  0.59896301  0.83713416    -0.83100
O1638       O  0.64869202  0.59345770  0.81553248    -0.85700
C1639       C  0.65106691  0.57363255  0.78788917     1.02000
O1640       O  0.64484178  0.54260815  0.79182550    -0.78500
O1641       O  0.61535117  0.98538041  0.82080276    -0.78700
C1642       C  0.58322366  0.98696586  0.81400668     1.01900
Cr1643     Cr  0.58241556  0.52450641  0.87915536     1.93700
Cr1644     Cr  0.62278783  0.58818636  0.86417684     1.93200
Cr1645     Cr  0.65094337  0.51909020  0.83906942     1.39100
O1646       O  0.61827521  0.54406953  0.85984405    -1.23700
O1647       O  0.72264460  0.64526845  0.64256487    -0.86000
O1648       O  0.78254630  0.65148656  0.67948294    -0.83000
C1649       C  0.81371604  0.64859264  0.68757503     0.97500
O1650       O  0.83623509  0.64370728  0.66299866    -0.83100
O1651       O  0.82417966  0.58022894  0.64163505    -0.85700
C1652       C  0.81161923  0.55445588  0.62749788     1.02000
O1653       O  0.78934878  0.55762232  0.60221907    -0.78500
O1654       O  0.73487049  0.59152367  0.63628347    -0.78700
C1655       C  0.71887007  0.61493462  0.65293233     1.01900
O1656       O  0.75194239  0.68191110  0.58191218    -0.86000
O1657       O  0.80936749  0.69474489  0.62382974    -0.83100
C1658       C  0.83641593  0.69213333  0.60464424     0.97500
O1659       O  0.84377213  0.66464550  0.58851319    -0.83100
O1660       O  0.83472027  0.59766706  0.56422839    -0.85700
C1661       C  0.81399402  0.59617048  0.53726503     1.02000
O1662       O  0.78293238  0.60433030  0.54181847    -0.78500
O1663       O  0.72502264  0.63464684  0.57063988    -0.78700
C1664       C  0.72952596  0.66610071  0.56421561     1.01900
Cr1665     Cr  0.76793261  0.66588807  0.63019430     1.93700
Cr1666     Cr  0.83126361  0.62191298  0.61357089     1.93200
Cr1667     Cr  0.75970338  0.59921201  0.58937771     1.39100
O1668       O  0.78655657  0.62934346  0.61026192    -1.23700
O1669       O  0.87692159  0.52289876  0.38946328    -0.86000
O1670       O  0.88521721  0.96444749  0.42984912    -0.83000
C1671       C  0.88390069  0.93393596  0.43977697     0.97500
O1672       O  0.87871992  0.91073822  0.41656474    -0.83100
O1673       O  0.81463094  0.92300314  0.39595753    -0.85700
C1674       C  0.78753892  0.93425629  0.38202530     1.02000
O1675       O  0.78926554  0.95542565  0.35560863    -0.78500
O1676       O  0.82346828  0.50897614  0.38535871    -0.78700
C1677       C  0.84640194  0.52607309  0.40062178     1.01900
O1678       O  0.91467745  0.49237721  0.33043079    -0.86000
O1679       O  0.92849652  0.93474238  0.37579493    -0.83100
C1680       C  0.92550397  0.90740257  0.35789774     0.97500
O1681       O  0.89823270  0.90156277  0.34084007    -0.83100
O1682       O  0.82992630  0.90833632  0.31972648    -0.85700
C1683       C  0.82719038  0.92685210  0.29119895     1.02000
O1684       O  0.83440611  0.95794304  0.29271144    -0.78500
O1685       O  0.86511125  0.51700895  0.31814557    -0.78700
C1686       C  0.89739448  0.51431907  0.31282768     1.01900
Cr1687     Cr  0.89867393  0.97679643  0.37978159     1.93700
Cr1688     Cr  0.85571244  0.91416834  0.36730082     1.93200
Cr1689     Cr  0.83034271  0.98369663  0.33932761     1.39100
O1690       O  0.86188267  0.95802562  0.36128773    -1.23700
O1691       O  0.73296765  0.85442556  0.16569556    -0.86000
O1692       O  0.66893389  0.82977804  0.16418363    -0.83000
C1693       C  0.64886726  0.85246771  0.17674516     0.97500
O1694       O  0.64028662  0.87819471  0.15787903    -0.83100
O1695       O  0.64721689  0.92889016  0.10538187    -0.85700
C1696       C  0.66369768  0.94378940  0.12970015     1.02000
O1697       O  0.69524038  0.93666287  0.13267059    -0.78500
O1698       O  0.75380898  0.89656311  0.13432102    -0.78700
C1699       C  0.75308340  0.87892222  0.16327544     1.01900
O1700       O  0.74558980  0.82834085  0.09212052    -0.86000
O1701       O  0.67903877  0.80437777  0.09174682    -0.83100
C1702       C  0.64683752  0.80430338  0.09504455     0.97500
O1703       O  0.63115261  0.83156104  0.10169422    -0.83100
O1704       O  0.64933071  0.88100226  0.04916031    -0.85700
C1705       C  0.66638072  0.90466836  0.03462449     1.02000
O1706       O  0.68913905  0.91996437  0.05296742    -0.78500
O1707       O  0.74336690  0.87577028  0.05952375    -0.78700
C1708       C  0.75408753  0.84557368  0.06423213     1.01900
Cr1709     Cr  0.70576589  0.83247697  0.12660797     1.93700
Cr1710     Cr  0.64551708  0.87914486  0.10358521     1.93200
Cr1711     Cr  0.71824258  0.90487396  0.09582340     1.39100
O1712       O  0.69030689  0.87156747  0.10810955    -1.23700
C1713       C  0.79751633  0.91585748  0.19179141    -0.27000
C1714       C  0.77537575  0.88814456  0.19509094    -0.15000
C1715       C  0.77330894  0.87146610  0.22950478     0.35600
C1716       C  0.79180603  0.88355961  0.25973311    -0.26400
C1717       C  0.81240506  0.91235978  0.25692109    -0.15700
C1718       C  0.81606746  0.92804650  0.22214285     0.36700
N1719       N  0.83826836  0.95650022  0.21774717    -0.89900
H1720       H  0.79986694  0.92867993  0.16554858     0.17800
H1721       H  0.78874818  0.87101954  0.28606745     0.17800
N1722       N  0.75169476  0.84280297  0.23445148    -0.88900
H1723       H  0.83779039  0.96532769  0.19060277     0.35200
H1724       H  0.86330016  0.94790467  0.22277486     0.40300
H1725       H  0.73380079  0.84867082  0.25500781     0.39900
H1726       H  0.76686532  0.82239791  0.24364272     0.34800
C1727       C  0.79923640  0.57891980  0.47325130    -0.27000
C1728       C  0.82460677  0.58219862  0.50057392    -0.15000
C1729       C  0.85804427  0.56957060  0.49265098     0.35600
C1730       C  0.86459952  0.55311033  0.45912143    -0.26400
C1731       C  0.83858673  0.54793980  0.43305308    -0.15700
C1732       C  0.80558739  0.56168415  0.44024556     0.36700
N1733       N  0.77784513  0.55861182  0.41479393    -0.89900
H1734       H  0.77351195  0.58867677  0.47798984     0.17800
H1735       H  0.89011928  0.54284364  0.45424345     0.17800
N1736       N  0.88586343  0.57238043  0.51801702    -0.88900
H1737       H  0.77161492  0.53306121  0.41232736     0.35200
H1738       H  0.78560940  0.56791787  0.38920059     0.40300
H1739       H  0.88009927  0.55897212  0.54199118     0.39900
H1740       H  0.88910731  0.59797943  0.52428376     0.34800
C1741       C  0.67412927  0.94976308  0.94297758    -0.27000
C1742       C  0.63955551  0.95500772  0.93349089    -0.15000
C1743       C  0.61409830  0.93952443  0.95528772     0.35600
C1744       C  0.62354041  0.92074930  0.98670985    -0.26400
C1745       C  0.65792801  0.91759236  0.99738056    -0.15700
C1746       C  0.68356159  0.93127364  0.97457314     0.36700
N1747       N  0.71910000  0.92698421  0.98408648    -0.89900
H1748       H  0.69398400  0.96100233  0.92631007     0.17800
H1749       H  0.60365986  0.91046853  0.00410306     0.17800
N1750       N  0.57851410  0.94407158  0.94682101    -0.88900
H1751       H  0.73471810  0.93890278  0.96474244     0.35200
H1752       H  0.72504082  0.90106717  0.98277555     0.40300
H1753       H  0.57135779  0.43461754  0.95417004     0.39900
H1754       H  0.58610665  0.40152777  0.92878512     0.34800
C1755       C  0.67625608  0.61896981  0.74755479    -0.27000
C1756       C  0.66379148  0.58585150  0.75127873    -0.15000
C1757       C  0.66650376  0.56380086  0.72053080     0.35600
C1758       C  0.68305812  0.57440688  0.68826298    -0.26400
C1759       C  0.69696075  0.60682406  0.68528027    -0.15700
C1760       C  0.69278287  0.62954605  0.71506466     0.36700
N1761       N  0.70693456  0.66279236  0.71334026    -0.89900
H1762       H  0.67452130  0.63641002  0.77049951     0.17800
H1763       H  0.68576649  0.55669917  0.66563266     0.17800
N1764       N  0.65324332  0.53015637  0.72197605    -0.88900
H1765       H  0.72450732  0.66508477  0.73483294     0.35200
H1766       H  0.68710198  0.68048040  0.71763526     0.40300
H1767       H  0.67344789  0.51297781  0.71720372     0.39900
H1768       H  0.63547616  0.52764533  0.70071525     0.34800
C1769       C  0.77767233  0.79219649  0.98160316    -0.27000
C1770       C  0.81358804  0.78920594  0.98426238    -0.15000
C1771       C  0.83031893  0.80691034  0.01278223     0.35600
C1772       C  0.81068074  0.82640543  0.03810696    -0.26400
C1773       C  0.77483726  0.82853181  0.03541011    -0.15700
C1774       C  0.75839139  0.81128930  0.00672171     0.36700
N1775       N  0.72186234  0.81200866  0.00303765    -0.89900
H1776       H  0.76410929  0.77911058  0.96002769     0.17800
H1777       H  0.82324920  0.83927977  0.06051792     0.17800
N1778       N  0.86687476  0.80444622  0.01659429    -0.88900
H1779       H  0.71361950  0.83726545  0.00049392     0.35200
H1780       H  0.71119752  0.80189914  0.02696241     0.40300
H1781       H  0.87299037  0.77930039  0.02338851     0.39900
H1782       H  0.87508164  0.81926629  0.03858699     0.34800
C1783       C  0.85609292  0.68390847  0.77152854    -0.27000
C1784       C  0.83826087  0.66721929  0.79951243    -0.15000
C1785       C  0.81390085  0.64266659  0.79062603     0.35600
C1786       C  0.80661516  0.63628093  0.75365445    -0.26400
C1787       C  0.82398825  0.65351423  0.72570223    -0.15700
C1788       C  0.84926704  0.67720002  0.73451609     0.36700
N1789       N  0.86676036  0.69535036  0.70592454    -0.89900
H1790       H  0.87474476  0.70285544  0.77863820     0.17800
H1791       H  0.78702013  0.61821698  0.74673555     0.17800
N1792       N  0.79546471  0.62542824  0.81898644    -0.88900
H1793       H  0.88479928  0.71165122  0.71714170     0.35200
H1794       H  0.84866280  0.71072545  0.69242235     0.40300
H1795       H  0.79962944  0.59934287  0.81568362     0.39900
H1796       H  0.76932588  0.63050805  0.81535691     0.34800
C1797       C  0.77877737  0.60316837  0.90949670    -0.27000
C1798       C  0.77078023  0.63757157  0.91687705    -0.15000
C1799       C  0.73714602  0.64962243  0.91156927     0.35600
C1800       C  0.71255006  0.62771863  0.89788242    -0.26400
C1801       C  0.72022102  0.59344458  0.88983004    -0.15700
C1802       C  0.75369784  0.58090729  0.89585147     0.36700
N1803       N  0.76194582  0.54590380  0.88872937    -0.89900
H1804       H  0.80496714  0.59412945  0.91256867     0.17800
H1805       H  0.68686238  0.63769782  0.89336200     0.17800
N1806       N  0.72833039  0.68446853  0.91933468    -0.88900
H1807       H  0.78751578  0.54062783  0.89542677     0.35200
H1808       H  0.75968245  0.54203443  0.86040927     0.40300
H1809       H  0.73156010  0.68821757  0.94755331     0.39900
H1810       H  0.70248012  0.68948427  0.91365608     0.34800
C1811       C  0.96366827  0.63254678  0.85343726    -0.27000
C1812       C  0.96831901  0.66180274  0.87527865    -0.15000
C1813       C  0.00194584  0.67263464  0.88210665     0.35600
C1814       C  0.53042493  0.64827111  0.87125417    -0.26400
C1815       C  0.52503104  0.61675088  0.85424767    -0.15700
C1816       C  0.99117052  0.61188875  0.84278333     0.36700
N1817       N  0.98527077  0.58063862  0.82394983    -0.89900
H1818       H  0.93828608  0.62398700  0.84646859     0.17800
H1819       H  0.55630089  0.65553391  0.87799802     0.17800
N1820       N  0.50832682  0.70038993  0.90146425    -0.88900
H1821       H  0.97208715  0.58622779  0.79961720     0.35200
H1822       H  0.96947454  0.56578331  0.84047241     0.40300
H1823       H  0.99834425  0.72350926  0.88622394     0.39900
H1824       H  0.53456163  0.70437225  0.90452015     0.34800
C1825       C  0.95168533  0.54168961  0.29421666    -0.27000
C1826       C  0.91636005  0.53804090  0.28822541    -0.15000
C1827       C  0.90097983  0.55642685  0.25904906     0.35600
C1828       C  0.92131344  0.57677707  0.23584723    -0.26400
C1829       C  0.95690399  0.57891644  0.24106448    -0.15700
C1830       C  0.97202257  0.56165507  0.27132803     0.36700
N1831       N  0.50897636  0.55390158  0.27442348    -0.89900
H1832       H  0.96404906  0.52848525  0.31689367     0.17800
H1833       H  0.90953613  0.58940154  0.21244928     0.17800
N1834       N  0.86517824  0.55330419  0.25173247    -0.88900
H1835       H  0.51321322  0.56067452  0.30181086     0.35200
H1836       H  0.52216960  0.57177058  0.25892670     0.40300
H1837       H  0.86243808  0.54397432  0.22500855     0.39900
H1838       H  0.85397142  0.57755450  0.25264617     0.34800
C1839       C  0.94286237  0.68207121  0.08047601    -0.27000
C1840       C  0.94979708  0.64757479  0.08733167    -0.15000
C1841       C  0.93676275  0.62341720  0.06224366     0.35600
C1842       C  0.91905492  0.63434015  0.03058112    -0.26400
C1843       C  0.91375974  0.66899168  0.02280165    -0.15700
C1844       C  0.92522329  0.69295998  0.04888652     0.36700
N1845       N  0.92015302  0.72864821  0.04311730    -0.89900
H1846       H  0.95205022  0.70112841  0.09932369     0.17800
H1847       H  0.91032792  0.61543583  0.01131590     0.17800
N1848       N  0.94208357  0.58767748  0.06716903    -0.88900
H1849       H  0.94413714  0.74003274  0.04252656     0.35200
H1850       H  0.90650827  0.73846393  0.06558099     0.40300
H1851       H  0.93100094  0.58044371  0.09211034     0.39900
H1852       H  0.96839886  0.58244220  0.06781331     0.34800
C1853       C  0.57410647  0.74456695  0.11613145    -0.27000
C1854       C  0.59233916  0.71543739  0.12692748    -0.15000
C1855       C  0.62858642  0.71444797  0.12230653     0.35600
C1856       C  0.64548930  0.74266803  0.10843507    -0.26400
C1857       C  0.62749098  0.77236732  0.09895865    -0.15700
C1858       C  0.59120492  0.77280244  0.10186807     0.36700
N1859       N  0.57153630  0.80218650  0.09117621    -0.89900
H1860       H  0.54645601  0.74545134  0.11869552     0.17800
H1861       H  0.67321917  0.74190829  0.10716025     0.17800
N1862       N  0.64939871  0.68589800  0.13334448    -0.88900
H1863       H  0.55760814  0.81064431  0.11407731     0.35200
H1864       H  0.55410939  0.79492681  0.07098376     0.40300
H1865       H  0.64413563  0.66520193  0.11650080     0.39900
H1866       H  0.64392430  0.67994612  0.16074888     0.34800
C1867       C  0.66369241  0.50171493  0.15427497    -0.27000
C1868       C  0.64461299  0.96833778  0.15337238    -0.15000
C1869       C  0.60928913  0.96344493  0.16022807     0.35600
C1870       C  0.58901148  0.98990844  0.17421024    -0.26400
C1871       C  0.60928636  0.52299871  0.17898743    -0.15700
C1872       C  0.64289790  0.52916334  0.16611965     0.36700
N1873       N  0.65430021  0.56338439  0.16132497    -0.89900
H1874       H  0.68856075  0.50641208  0.14220936     0.17800
H1875       H  0.56158731  0.98650947  0.17641651     0.17800
N1876       N  0.59331694  0.93207890  0.15125628    -0.88900
H1877       H  0.67859336  0.56360347  0.14919743     0.35200
H1878       H  0.65687548  0.57401892  0.18745574     0.40300
H1879       H  0.57385207  0.93708764  0.13219093     0.39900
H1880       H  0.58207916  0.92249699  0.17517261     0.34800
C1881       C  0.56326145  0.60758261  0.02640401    -0.27000
C1882       C  0.58037337  0.58728744  0.05251823    -0.15000
C1883       C  0.60479083  0.56285233  0.04094127     0.35600
C1884       C  0.61044431  0.55827921  0.00306906    -0.26400
C1885       C  0.59266315  0.57810148  0.97691012    -0.15700
C1886       C  0.56926936  0.60342892  0.98885579     0.36700
N1887       N  0.54981102  0.62392341  0.96358141    -0.89900
H1888       H  0.54433235  0.62628517  0.03528837     0.17800
H1889       H  0.62826080  0.53869091  0.99383241     0.17800
N1890       N  0.62202828  0.54144289  0.06736181    -0.88900
H1891       H  0.53615150  0.60798306  0.94617612     0.35200
H1892       H  0.56671453  0.63820645  0.94783130     0.40300
H1893       H  0.63834950  0.55673519  0.08259537     0.39900
H1894       H  0.63770274  0.52351902  0.05407571     0.34800
C1895       C  0.65763293  0.69486004  0.49848289    -0.27000
C1896       C  0.67117189  0.72504347  0.48408868    -0.15000
C1897       C  0.70323480  0.73577847  0.49724440     0.35600
C1898       C  0.72145401  0.71590968  0.52279248    -0.26400
C1899       C  0.70847206  0.68538842  0.53664721    -0.15700
C1900       C  0.67573223  0.67511630  0.52483781     0.36700
N1901       N  0.66065280  0.64515991  0.54000511    -0.89900
H1902       H  0.63281942  0.68656865  0.48916482     0.17800
H1903       H  0.74619481  0.72467769  0.53185326     0.17800
N1904       N  0.71739944  0.76723858  0.48531494    -0.88900
H1905       H  0.63665790  0.64106091  0.52825718     0.35200
H1906       H  0.65633123  0.64959952  0.56799435     0.40300
H1907       H  0.74132700  0.76212204  0.47341296     0.39900
H1908       H  0.72112944  0.78240188  0.50847324     0.34800
C1909       C  0.61001722  0.67986272  0.27667590    -0.27000
C1910       C  0.57666742  0.66747111  0.27259815    -0.15000
C1911       C  0.55347709  0.67173492  0.30262106     0.35600
C1912       C  0.56302806  0.69057556  0.33353912    -0.26400
C1913       C  0.59545981  0.70513870  0.33623930    -0.15700
C1914       C  0.61960346  0.69836495  0.30803280     0.36700
N1915       N  0.65354343  0.71138591  0.31020884    -0.89900
H1916       H  0.62854565  0.67646101  0.25471627     0.17800
H1917       H  0.54443389  0.69455274  0.35534138     0.17800
N1918       N  0.51997707  0.65744670  0.30288553    -0.88900
H1919       H  0.65756968  0.72690258  0.28729903     0.35200
H1920       H  0.67083801  0.69089042  0.30875092     0.40300
H1921       H  0.52217979  0.63143053  0.29765168     0.39900
H1922       H  0.00571632  0.67129720  0.28399543     0.34800
C1923       C  0.49165093  0.83879607  0.34600850    -0.27000
C1924       C  0.50242244  0.83453754  0.38270722    -0.15000
C1925       C  0.98146744  0.84544423  0.41045141     0.35600
C1926       C  0.95582608  0.86933137  0.40119679    -0.26400
C1927       C  0.95067765  0.87981098  0.36460400    -0.15700
C1928       C  0.96992017  0.86447131  0.33642722     0.36700
N1929       N  0.45544642  0.86715471  0.29939498    -0.89900
H1930       H  0.50399557  0.82419178  0.32435572     0.17800
H1931       H  0.94042044  0.88064842  0.42288208     0.17800
N1932       N  0.98759742  0.83671651  0.44833965    -0.88900
H1933       H  0.44535689  0.84407107  0.29086355     0.35200
H1934       H  0.98696706  0.88356010  0.28834205     0.40300
H1935       H  0.98240904  0.81094327  0.45146379     0.39900
H1936       H  0.97047487  0.84978656  0.46558021     0.34800
C1937       C  0.69421486  0.90664268  0.39180770    -0.27000
C1938       C  0.69884104  0.87756919  0.41383917    -0.15000
C1939       C  0.73097539  0.87042477  0.42919793     0.35600
C1940       C  0.75842123  0.89149553  0.42081332    -0.26400
C1941       C  0.75512594  0.91870783  0.39546783    -0.15700
C1942       C  0.72207087  0.92682518  0.38174851     0.36700
N1943       N  0.71608813  0.95425066  0.35657385    -0.89900
H1944       H  0.66929637  0.91212126  0.37993453     0.17800
H1945       H  0.78313538  0.88495259  0.43253048     0.17800
N1946       N  0.73594881  0.84078514  0.45180096    -0.88900
H1947       H  0.72981212  0.94940122  0.33238441     0.35200
H1948       H  0.72489440  0.97655835  0.36849816     0.40300
H1949       H  0.72107115  0.84408762  0.47550449     0.39900
H1950       H  0.76140297  0.83859422  0.46045847     0.34800
C1951       C  0.63948787  0.87466732  0.23942932    -0.27000
C1952       C  0.63638919  0.84803023  0.21433670    -0.15000
C1953       C  0.62744513  0.81548987  0.22669549     0.35600
C1954       C  0.62464151  0.80944435  0.26441412    -0.26400
C1955       C  0.63047368  0.83529206  0.29000875    -0.15700
C1956       C  0.63691685  0.86860550  0.27741751     0.36700
N1957       N  0.64266681  0.89564922  0.30300936    -0.89900
H1958       H  0.64652774  0.89957093  0.22955660     0.17800
H1959       H  0.61856384  0.78415363  0.27387370     0.17800
N1960       N  0.62232879  0.78849139  0.20079753    -0.88900
H1961       H  0.64612783  0.91859450  0.28909179     0.35200
H1962       H  0.66572252  0.89016576  0.31647235     0.40300
H1963       H  0.60113287  0.79518604  0.18463615     0.39900
H1964       H  0.61618690  0.76599523  0.21438901     0.34800
C1965       C  0.58290050  0.94704850  0.75958108    -0.27000
C1966       C  0.56609448  0.96133562  0.79026971    -0.15000
C1967       C  0.53184965  0.95198830  0.79751269     0.35600
C1968       C  0.51440699  0.93149338  0.77240160    -0.26400
C1969       C  0.53034882  0.91903093  0.74053905    -0.15700
C1970       C  0.56546055  0.92610360  0.73453606     0.36700
N1971       N  0.58387520  0.91371581  0.70288570    -0.89900
H1972       H  0.60930178  0.95340375  0.75406274     0.17800
H1973       H  0.99266806  0.92514157  0.77585487     0.17800
N1974       N  0.51464700  0.96365659  0.83026617    -0.88900
H1975       H  0.59032861  0.93464291  0.68678849     0.35200
H1976       H  0.56874670  0.89822362  0.68654930     0.40300
H1977       H  0.52747637  0.95290997  0.85280080     0.39900
H1978       H  0.48957302  0.95483971  0.83129168     0.34800
C1979       C  0.88407566  0.89508783  0.53524577    -0.27000
C1980       C  0.91136881  0.91260967  0.55099168    -0.15000
C1981       C  0.92880784  0.93723294  0.53040428     0.35600
C1982       C  0.91906829  0.94339496  0.49412587    -0.26400
C1983       C  0.89230772  0.92557608  0.47798166    -0.15700
C1984       C  0.87458699  0.90101188  0.49847925     0.36700
N1985       N  0.84657297  0.88308701  0.48242329    -0.89900
H1986       H  0.87070687  0.87632206  0.55140218     0.17800
H1987       H  0.93263416  0.96219179  0.47819589     0.17800
N1988       N  0.95598841  0.95629355  0.54662568    -0.88900
H1989       H  0.83512791  0.86742967  0.50200432     0.35200
H1990       H  0.85668629  0.86693615  0.46224726     0.40300
H1991       H  0.94526877  0.97116984  0.56760174     0.39900
H1992       H  0.96641026  0.97308964  0.52750021     0.34800
C1993       C  0.87099344  0.97908571  0.62574228    -0.27000
C1994       C  0.87691061  0.97239412  0.66327004    -0.15000
C1995       C  0.85674155  0.98948531  0.68977860     0.35600
C1996       C  0.83292713  0.51447474  0.67575032    -0.26400
C1997       C  0.82747356  0.52151902  0.63812088    -0.15700
C1998       C  0.84568657  0.50249105  0.61164503     0.36700
N1999       N  0.84087739  0.50935174  0.57310877    -0.89900
H2000       H  0.88598621  0.96578691  0.60514449     0.17800
H2001       H  0.81943285  0.52963890  0.69614319     0.17800
N2002       N  0.86161272  0.98244911  0.72822639    -0.88900
H2003       H  0.85901146  0.99526955  0.55965384     0.35200
H2004       H  0.81597259  0.50241860  0.56632184     0.40300
H2005       H  0.85393882  0.95755140  0.73301757     0.39900
H2006       H  0.84682589  0.49891704  0.74174218     0.34800
C2007       C  0.84580161  0.75349133  0.60403635    -0.27000
C2008       C  0.86032473  0.72096551  0.60552452    -0.15000
C2009       C  0.89505438  0.71706229  0.61629708     0.35600
C2010       C  0.91358765  0.74583873  0.62773029    -0.26400
C2011       C  0.89808344  0.77829578  0.62833737    -0.15700
C2012       C  0.86395185  0.78188996  0.61515121     0.36700
N2013       N  0.84658134  0.81422442  0.61468984    -0.89900
H2014       H  0.81919989  0.75676259  0.59606381     0.17800
H2015       H  0.93981154  0.74279812  0.63697685     0.17800
N2016       N  0.91091571  0.68391251  0.61713802    -0.88900
H2017       H  0.82474236  0.81267146  0.63125376     0.35200
H2018       H  0.83871762  0.81931574  0.58772237     0.40300
H2019       H  0.89872174  0.66977885  0.63751178     0.39900
H2020       H  0.93657269  0.68552601  0.62501914     0.34800
C2021       C  0.56437765  0.81460031  0.54568209    -0.27000
C2022       C  0.56592292  0.83809230  0.51652170    -0.15000
C2023       C  0.55367256  0.87169788  0.52278344     0.35600
C2024       C  0.53829506  0.88006162  0.55686553    -0.26400
C2025       C  0.53490998  0.85574735  0.58489430    -0.15700
C2026       C  0.54906476  0.82304641  0.57943178     0.36700
N2027       N  0.04467234  0.79247160  0.60733068    -0.89900
H2028       H  0.57415709  0.78894222  0.54207414     0.17800
H2029       H  0.52751432  0.90528523  0.56092714     0.17800
N2030       N  0.55589994  0.89700371  0.49439193    -0.88900
H2031       H  0.06917736  0.78321205  0.61379023     0.35200
H2032       H  0.03076504  0.77254435  0.59617200     0.40300
H2033       H  0.58186098  0.90180936  0.49018640     0.39900
H2034       H  0.54462315  0.91988654  0.50300272     0.34800
C2035       C  0.93485291  0.82286678  0.79868033    -0.27000
C2036       C  0.90971437  0.83236516  0.77271265    -0.15000
C2037       C  0.87496493  0.82612283  0.78111994     0.35600
C2038       C  0.86666813  0.80833801  0.81356290    -0.26400
C2039       C  0.89216274  0.79677521  0.83807732    -0.15700
C2040       C  0.92649401  0.80527760  0.83095157     0.36700
N2041       N  0.95320346  0.79571253  0.85608465    -0.89900
H2042       H  0.96159244  0.82800678  0.79346619     0.17800
H2043       H  0.84015552  0.80239064  0.81897353     0.17800
N2044       N  0.84823550  0.83690363  0.75638114    -0.88900
H2045       H  0.96550192  0.81773210  0.86448160     0.35200
H2046       H  0.97103419  0.78049503  0.84198767     0.40300
H2047       H  0.84773392  0.86342836  0.75622567     0.39900
H2048       H  0.82430896  0.82940025  0.76609643     0.34800
loop_ 
_geom_bond_atom_site_label_1 
_geom_bond_atom_site_label_2 
_geom_bond_distance 
_geom_bond_site_symmetry_2 
_ccdc_geom_bond_type 
O1            C9   1.266       .  A
O1        Cr1043   2.018   1_455  S
O2            C3   1.257       .  A
O2          Cr19   1.957       .  S
C3            O4   1.262       .  A
C3          C444   1.458       .  S
O4          Cr20   1.998       .  S
O5            C6   1.243       .  A
O5          Cr20   1.939       .  S
C6            O7   1.272       .  A
C6          C475   1.483       .  S
O7          Cr21   2.056       .  S
O8            C9   1.260   1_655  A
O8        Cr1045   1.981       .  S
C9          C489   1.499       .  S
O10        C1042   1.260       .  A
O10         Cr19   1.966       .  S
O11          C12   1.269       .  A
O11         Cr19   2.017       .  S
C12          O13   1.257       .  A
C12         C458   1.470       .  S
O13         Cr20   1.962       .  S
O14          C15   1.272       .  A
O14         Cr20   2.031       .  S
C15          O16   1.261       .  A
C15         C500   1.495       .  S
O16         Cr21   1.966       .  S
O17          C18   1.276       .  A
O17       Cr1045   2.045   1_455  S
C18        O1034   1.263   1_455  A
C18         C433   1.484       .  S
Cr19       O1025   2.021       .  S
Cr19         O22   1.761       .  S
Cr20         O22   1.761       .  S
Cr21       O1032   1.967       .  S
Cr21       O1041   2.046       .  S
Cr21         O22   1.772       .  S
O23          C31   1.261       .  A
O23         Cr41   2.001       .  S
O24          C25   1.261       .  A
O24         Cr41   1.961       .  S
C25          O26   1.270       .  A
C25         C419   1.485       .  S
O26         Cr42   2.023       .  S
O27          C28   1.247       .  A
O27         Cr42   1.948       .  S
C28          O29   1.269       .  A
C28         C388   1.469       .  S
O29         Cr43   2.035       .  S
O30          C31   1.263       .  A
O30         Cr43   1.993       .  S
C31         C377   1.491       .  S
O32          C40   1.265       .  A
O32         Cr41   1.966       .  S
O33          C34   1.263       .  A
O33         Cr41   2.005       .  S
C34          O35   1.255       .  A
C34         C402   1.467       .  S
O35         Cr42   1.974       .  S
O36          C37   1.273       .  A
O36         Cr42   2.033       .  S
C37          O38   1.263       .  A
C37         C486   1.497       .  S
O38         Cr43   1.972       .  S
O39          C40   1.276       .  A
O39         Cr43   2.039       .  S
C40         C360   1.492       .  S
Cr41         O44   1.763       .  S
Cr42         O44   1.766       .  S
Cr43         O44   1.768       .  S
O45          C53   1.263       .  A
O45       Cr1087   2.010       .  S
O46          C47   1.256       .  A
O46         Cr63   1.952       .  S
C47          O48   1.270       .  A
C47         C346   1.464       .  S
O48         Cr64   2.029       .  S
O49          C50   1.245       .  A
O49         Cr64   1.937       .  S
C50          O51   1.273       .  A
C50         C318   1.475       .  S
O51         Cr65   2.052       .  S
O52          C53   1.260       .  A
O52       Cr1089   1.985       .  S
C53         C304   1.493       .  S
O54          C62   1.261       .  A
O54       Cr1087   1.953       .  S
O55          C56   1.268       .  A
O55         Cr63   2.012       .  S
C56          O57   1.253       .  A
C56         C335   1.473       .  S
O57         Cr64   1.960       .  S
O58          C59   1.274       .  A
O58         Cr64   2.038       .  S
C59          O60   1.256       .  A
C59         C374   1.499       .  S
O60         Cr65   1.959       .  S
O61          C62   1.278       .  A
O61       Cr1089   2.053       .  S
C62         C293   1.482       .  S
Cr63       O1069   2.016   1_455  S
Cr63       O1078   1.958       .  S
Cr63         O66   1.761       .  S
Cr64         O66   1.767       .  S
Cr65       O1076   1.977   1_455  S
Cr65       O1085   2.054   1_455  S
Cr65         O66   1.764       .  S
O67          C75   1.263       .  A
O67         Cr85   2.010       .  S
O68          C69   1.258       .  A
O68         Cr85   1.964       .  S
C69          O70   1.266       .  A
C69         C248   1.463       .  S
O70         Cr86   2.011       .  S
O71          C72   1.247       .  A
O71         Cr86   1.929       .  S
C72          O73   1.276       .  A
C72         C276   1.495       .  S
O73         Cr87   2.056       .  S
O74          C75   1.256       .  A
O74         Cr87   1.976       .  S
C75         C503   1.490       .  S
O76          C84   1.263       .  A
O76         Cr85   1.959       .  S
O77          C78   1.267       .  A
O77         Cr85   2.013       .  S
C78          O79   1.258       .  A
C78         C262   1.471       .  S
O79         Cr86   1.964       .  S
O80          C81   1.271       .  A
O80         Cr86   2.028       .  S
C81          O82   1.257       .  A
C81         C307   1.498   1_556  S
O82         Cr87   1.967       .  S
O83          C84   1.281       .  A
O83         Cr87   2.054       .  S
C84         C234   1.497       .  S
Cr85         O88   1.767       .  S
Cr86         O88   1.769       .  S
Cr87         O88   1.768       .  S
O89          C97   1.264       .  A
O89        Cr619   2.011       .  S
O90          C91   1.257       .  A
O90        Cr107   1.960       .  S
C91          O92   1.269       .  A
C91         C349   1.475       .  S
O92        Cr108   2.022       .  S
O93          C94   1.245       .  A
O93        Cr108   1.930       .  S
C94          O95   1.276       .  A
C94         C265   1.495       .  S
O95        Cr109   2.064       .  S
O96          C97   1.261       .  A
O96        Cr621   1.980       .  S
C97         C206   1.492       .  S
O98         C106   1.261       .  A
O98        Cr619   1.956       .  S
O99         C100   1.269       .  A
O99        Cr107   2.025       .  S
C100        O101   1.253       .  A
C100        C279   1.470       .  S
O101       Cr108   1.958       .  S
O102        C103   1.274       .  A
O102       Cr108   2.035       .  S
C103        O104   1.259       .  A
C103        C220   1.494       .  S
O104       Cr109   1.964       .  S
O105        C106   1.280       .  A
O105       Cr621   2.056       .  S
C106        C430   1.497       .  S
Cr107       O601   2.017   1_545  S
Cr107       O610   1.956       .  S
Cr107       O110   1.759       .  S
Cr108       O110   1.761       .  S
Cr109       O608   1.981   1_545  S
Cr109       O617   2.062   1_545  S
Cr109       O110   1.768       .  S
O111        C119   1.259       .  A
O111       Cr129   2.003       .  S
O112        C113   1.258       .  A
O112       Cr129   1.953       .  S
C113        O114   1.270       .  A
C113        C251   1.460       .  S
O114       Cr130   2.018       .  S
O115        C116   1.249       .  A
O115       Cr130   1.929       .  S
C116        O117   1.274       .  A
C116        C461   1.497       .  S
O117       Cr131   2.048       .  S
O118        C119   1.256       .  A
O118       Cr131   1.983       .  S
C119        C223   1.484       .  S
O120        C128   1.262       .  A
O120       Cr129   1.948       .  S
O121        C122   1.263       .  A
O121       Cr129   1.999       .  S
C122        O123   1.256       .  A
C122        C472   1.474       .  S
O123       Cr130   1.972       .  S
O124        C125   1.269       .  A
O124       Cr130   2.022       .  S
C125        O126   1.258       .  A
C125        C192   1.496       .  S
O126       Cr131   1.962       .  S
O127        C128   1.281       .  A
O127       Cr131   2.054       .  S
C128        C363   1.497       .  S
Cr129       O132   1.765       .  S
Cr130       O132   1.773       .  S
Cr131       O132   1.772       .  S
O133        C141   1.263       .  A
O133       Cr663   2.003   1_545  S
O134        C135   1.257       .  A
O134       Cr151   1.952       .  S
C135        O136   1.266       .  A
C135        C447   1.464       .  S
O136       Cr152   2.009       .  S
O137        C138   1.249       .  A
O137       Cr152   1.947       .  S
C138        O139   1.270       .  A
C138        C405   1.480       .  S
O139       Cr153   2.033       .  S
O140        C141   1.260       .  A
O140       Cr665   1.984   1_545  S
C141        C195   1.487       .  S
O142        C150   1.262   1_565  A
O142       Cr663   1.958       .  S
O143        C144   1.265       .  A
O143       Cr151   2.004       .  S
C144        O145   1.258       .  A
C144        C391   1.475       .  S
O145       Cr152   1.977       .  S
O146        C147   1.271       .  A
O146       Cr152   2.018       .  S
C147        O148   1.264       .  A
C147        C181   1.492       .  S
O148       Cr153   1.978       .  S
O149        C150   1.278       .  A
O149       Cr665   2.056   1_545  S
C150        C290   1.499       .  S
Cr151       O645   2.003       .  S
Cr151       O654   1.956       .  S
Cr151       O154   1.760       .  S
Cr152       O154   1.766       .  S
Cr153       O652   1.991       .  S
Cr153       O661   2.049       .  S
Cr153       O154   1.769       .  S
O155        C163   1.257       .  A
O155       Cr173   1.979       .  S
O156        C157   1.265       .  A
O156       Cr173   1.993       .  S
C157        O158   1.264       .  A
C157        C416   1.473       .  S
O158       Cr174   1.991       .  S
O159        C160   1.255       .  A
O159       Cr174   1.973       .  S
C160        O161   1.265       .  A
C160        C332   1.480       .  S
O161       Cr175   2.019       .  S
O162        C163   1.261       .  A
O162       Cr175   1.999       .  S
C163        C178   1.493       .  S
O164        C172   1.268       .  A
O164       Cr173   2.014       .  S
O165        C166   1.263       .  A
O165       Cr173   1.987       .  S
C166        O167   1.255       .  A
C166        C321   1.478       .  S
O167       Cr174   1.976       .  S
O168        C169   1.268       .  A
O168       Cr174   1.994       .  S
C169        O170   1.268       .  A
C169        C209   1.485   1_554  S
O170       Cr175   2.001       .  S
O171        C172   1.265       .  A
O171       Cr175   1.990       .  S
C172        C237   1.483       .  S
Cr173       O176   1.772       .  S
Cr174       O176   1.774       .  S
Cr175       O176   1.774       .  S
C177        C178   1.408       .  A
C177        C182   1.409       .  A
C177        H184   1.083       .  S
C178        C179   1.414       .  A
C179        C180   1.404       .  A
C179        N186   1.433       .  S
C180        C181   1.406       .  A
C180        H185   1.084       .  S
C181        C182   1.415       .  A
C182        N183   1.438       .  S
N183        H187   1.046       .  S
N183        H188   1.046       .  S
N186        H189   1.046       .  S
N186        H190   1.046       .  S
C191        C192   1.410       .  A
C191        C196   1.398       .  A
C191        H198   1.084       .  S
C192        C193   1.419       .  A
C193        C194   1.403       .  A
C193        N200   1.432       .  S
C194        C195   1.408       .  A
C194        H199   1.084       .  S
C195        C196   1.413       .  A
C196        N197   1.433       .  S
N197        H201   1.044       .  S
N197        H202   1.046       .  S
N200        H203   1.045       .  S
N200        H204   1.045       .  S
C205        C206   1.404       .  A
C205        C210   1.403       .  A
C205        H212   1.083       .  S
C206        C207   1.416       .  A
C207        C208   1.407       .  A
C207        N214   1.432       .  S
C208        C209   1.403       .  A
C208        H213   1.084       .  S
C209        C210   1.416       .  A
C210        N211   1.439       .  S
N211        H215   1.046       .  S
N211        H216   1.044       .  S
N214        H729   1.045       .  S
N214        H730   1.046       .  S
H217        N726   1.045       .  S
H218        N726   1.046       .  S
C219        C220   1.406       .  A
C219        C224   1.408       .  A
C219        H226   1.084       .  S
C220        C221   1.417       .  A
C221        C222   1.404       .  A
C221        N228   1.433       .  S
C222        C223   1.401       .  A
C222        H227   1.084       .  S
C223        C224   1.412       .  A
C224        N225   1.432       .  S
N225        H229   1.046       .  S
N225        H230   1.045       .  S
N228        H231   1.046       .  S
N228        H232   1.045       .  S
C233        C234   1.409       .  A
C233        C238   1.400   1_556  A
C233        H240   1.084       .  S
C234        C235   1.415   1_556  A
C235        C236   1.416       .  A
C235        N242   1.435       .  S
C236        C237   1.405       .  A
C236        H241   1.084       .  S
C237        C238   1.411       .  A
C238        N239   1.433   1_554  S
N239        H243   1.044       .  S
N239        H244   1.045   1_556  S
N242        H245   1.043       .  S
N242        H246   1.046       .  S
C247        C248   1.404       .  A
C247        C252   1.401       .  A
C247        H254   1.084       .  S
C248        C249   1.408       .  A
C249        C250   1.399       .  A
C249        N256   1.438       .  S
C250        C251   1.402       .  A
C250        H255   1.084       .  S
C251        C252   1.407       .  A
C252        N253   1.439       .  S
N253        H257   1.046       .  S
N253        H258   1.046       .  S
N256        H259   1.045       .  S
N256        H260   1.046       .  S
C261        C262   1.408       .  A
C261        C266   1.413       .  A
C261        H268   1.084       .  S
C262        C263   1.398       .  A
C263        C264   1.400       .  A
C263        N270   1.439       .  S
C264        C265   1.418       .  A
C264        H269   1.083       .  S
C265        C266   1.411       .  A
C266        N267   1.436       .  S
N267        H271   1.046       .  S
N267        H272   1.045       .  S
N270        H273   1.046       .  S
N270        H274   1.045       .  S
C275        C276   1.418       .  A
C275        C280   1.398       .  A
C275        H282   1.083       .  S
C276        C277   1.411       .  A
C277       C1302   1.413       .  A
C277       N1308   1.436       .  S
C278        C279   1.407       .  A
C278       C1301   1.410       .  A
C278        H283   1.083       .  S
C279       C1304   1.395   1_455  A
C280       C1303   1.396       .  A
C280        N281   1.433       .  S
N281        H285   1.046       .  S
N281        H286   1.045       .  S
N284       C1301   1.437       .  S
N284        H288   1.046       .  S
N284       H1311   1.045       .  S
H287       N1308   1.046       .  S
C289        C290   1.408       .  A
C289        C294   1.398       .  A
C289        H296   1.083       .  S
C290        C291   1.416       .  A
C291        C292   1.417       .  A
C291        N298   1.431       .  S
C292        C293   1.406       .  A
C292        H297   1.083       .  S
C293        C294   1.405       .  A
C294       N1319   1.434       .  S
N295       C1318   1.441   1_455  S
N295        H299   1.046       .  S
N295        H300   1.043       .  S
N298        H301   1.046       .  S
N298        H302   1.046       .  S
C303        C304   1.403       .  A
C303        C308   1.404       .  A
C303        H310   1.084       .  S
C304        C305   1.421       .  A
C305        C306   1.404       .  A
C305        N312   1.432       .  S
C306        C307   1.406       .  A
C306        H311   1.083       .  S
C307        C308   1.418       .  A
C308        N309   1.431       .  S
N309        H313   1.045       .  S
N309        H314   1.046       .  S
N312        H315   1.045       .  S
N312        H316   1.045       .  S
C317        C318   1.399       .  A
C317        C322   1.408       .  A
C317        H324   1.084       .  S
C318        C319   1.419       .  A
C319        C320   1.395       .  A
C319        N326   1.434       .  S
C320        C321   1.399       .  A
C320        H325   1.084       .  S
C321        C322   1.415       .  A
C322        N323   1.432       .  S
N323        H327   1.046       .  S
N323        H328   1.046       .  S
N326        H329   1.044       .  S
N326        H330   1.045       .  S
C331        C336   1.413       .  A
C331        C844   1.401   1_545  A
C331        H338   1.083       .  S
C332        C333   1.415       .  A
C332        C843   1.401       .  A
C333        C334   1.393       .  A
C333        N340   1.432       .  S
C334        C847   1.394       .  A
C334        H339   1.085       .  S
C335        C336   1.418       .  A
C335        C846   1.392   1_545  A
C336        N337   1.437       .  S
N337        H341   1.046       .  S
N337        H342   1.045       .  S
N340        H343   1.046       .  S
N340        H344   1.046       .  S
C345        C346   1.402       .  A
C345        C350   1.394   1_554  A
C345        H352   1.085       .  S
C346        C347   1.406       .  A
C347        C348   1.405       .  A
C347        N354   1.438       .  S
C348        C349   1.408   1_554  A
C348        H353   1.084   1_554  S
C349        C350   1.412       .  A
C350        N351   1.431       .  S
N351        H355   1.046       .  S
N351        H356   1.044       .  S
N354        H357   1.045       .  S
N354        H358   1.046       .  S
C359        C360   1.410       .  A
C359        C364   1.417       .  A
C359        H366   1.083       .  S
C360        C361   1.410       .  A
C361        C362   1.397       .  A
C361        N368   1.434       .  S
C362        C363   1.408       .  A
C362        H367   1.084       .  S
C363        C364   1.416       .  A
C364        N365   1.437       .  S
N365        H369   1.045       .  S
N365        H370   1.046       .  S
N368        H371   1.046       .  S
N368        H372   1.046       .  S
C373        C374   1.406       .  A
C373        C378   1.410       .  A
C373        H380   1.083       .  S
C374        C375   1.425       .  A
C375        C376   1.400       .  A
C375        N382   1.433       .  S
C376        C377   1.400       .  A
C376        H381   1.084       .  S
C377        C378   1.418       .  A
C378        N379   1.438       .  S
N379        H383   1.045       .  S
N379        H384   1.046       .  S
N382        H385   1.046       .  S
N382       H1410   1.045       .  S
H386       N1406   1.045       .  S
C387        C388   1.409   1_655  A
C387       C1416   1.408       .  A
C387        H394   1.084   1_655  S
C388       C1413   1.407   1_455  A
C389        C390   1.401       .  A
C389       C1412   1.408       .  A
C389        N396   1.438       .  S
C390        C391   1.406       .  A
C390        H395   1.084       .  S
C391        C392   1.404       .  A
C392       C1411   1.407       .  A
C392       N1417   1.431       .  S
N393       C1416   1.431       .  S
N393        H397   1.045       .  S
N393       H1422   1.046       .  S
N396        H399   1.045       .  S
N396        H400   1.046       .  S
H398       N1417   1.045       .  S
C401        C402   1.402       .  A
C401        C406   1.394       .  A
C401        H408   1.082       .  S
C402        C403   1.402       .  A
C403        C404   1.408       .  A
C403        N410   1.437       .  S
C404        C405   1.414       .  A
C404        H409   1.084       .  S
C405        C406   1.413       .  A
C406        N407   1.432       .  S
N407        H411   1.045       .  S
N407        H412   1.045       .  S
N410        H413   1.046       .  S
N410        H414   1.045       .  S
C415        C416   1.403       .  A
C415        C420   1.406       .  A
C415        H422   1.084       .  S
C416        C417   1.410       .  A
C417        C418   1.398       .  A
C417        N424   1.439       .  S
C418        C419   1.406       .  A
C418        H423   1.084       .  S
C419        C420   1.414       .  A
C420        N421   1.432       .  S
N421        H425   1.046       .  S
N421        H426   1.046       .  S
N424        H427   1.046       .  S
N424        H428   1.046       .  S
C429        C430   1.407       .  A
C429        C434   1.412       .  A
C429        H436   1.084       .  S
C430        C431   1.419       .  A
C431        C432   1.404       .  A
C431        N438   1.439       .  S
C432        C433   1.399       .  A
C432       H1461   1.084   1_455  S
C433        C434   1.420       .  A
C434        N435   1.438       .  S
N435        H439   1.046       .  S
N435        H440   1.042       .  S
H437       C1456   1.084       .  S
N438        H441   1.046       .  S
N438        H442   1.046   1_455  S
C443        C444   1.402       .  A
C443        C448   1.403       .  A
C443        H450   1.084       .  S
C444        C445   1.406       .  A
C445        C446   1.393       .  A
C445        N452   1.439       .  S
C446        C447   1.403       .  A
C446        H451   1.084       .  S
C447        C448   1.411       .  A
C448        N449   1.438       .  S
N449        H453   1.046       .  S
N449        H454   1.045       .  S
N452        H455   1.045       .  S
N452        H456   1.046       .  S
C457        C458   1.407       .  A
C457        C974   1.409       .  A
C457        H464   1.083       .  S
C458        C459   1.398       .  A
C459        C972   1.404       .  A
C459        N466   1.437       .  S
C460        C461   1.417       .  A
C460        C971   1.399       .  A
C460        H465   1.083       .  S
C461        C462   1.411   1_545  A
C462        C969   1.414       .  A
C462        N463   1.437       .  S
N463        H468   1.046       .  S
N463        H979   1.046       .  S
N466        H469   1.046       .  S
N466        H982   1.045       .  S
H467        N975   1.045       .  S
H470        N978   1.046       .  S
C471        C472   1.394       .  A
C471        C476   1.393       .  A
C471        H478   1.085       .  S
C472        C473   1.417       .  A
C473        C474   1.415       .  A
C473        N480   1.437       .  S
C474        C475   1.403       .  A
C474        H479   1.083       .  S
C475        C476   1.418       .  A
C476        N477   1.435       .  S
N477        H481   1.046       .  S
N477        H482   1.046       .  S
N480        H483   1.045       .  S
N480        H484   1.045       .  S
C485        C486   1.406       .  A
C485        C490   1.402       .  A
C485        H492   1.084       .  S
C486        C487   1.415       .  A
C487        C488   1.416       .  A
C487        N494   1.437       .  S
C488        C489   1.411       .  A
C488        H493   1.083       .  S
C489        C490   1.413       .  A
C490       N1515   1.433       .  S
N491       C1514   1.433       .  S
N491        H495   1.046       .  S
N491        H496   1.046       .  S
N494        H497   1.046       .  S
N494        H498   1.046       .  S
C499        C500   1.408       .  A
C499        C504   1.401       .  A
C499        H506   1.083       .  S
C500        C501   1.417       .  A
C501        C502   1.412       .  A
C501        N508   1.438       .  S
C502        C503   1.407       .  A
C502        H507   1.083       .  S
C503        C504   1.410       .  A
C504        N505   1.433       .  S
N505        H509   1.046       .  S
N505        H510   1.046       .  S
N508        H511   1.045       .  S
N508        H512   1.046       .  S
O513        C521   1.263       .  A
O513      Cr1555   2.004   1_455  S
O514        C515   1.256       .  A
O514       Cr531   1.952       .  S
C515        O516   1.267       .  A
C515        C956   1.463       .  S
O516       Cr532   2.013       .  S
O517        C518   1.243       .  A
O517       Cr532   1.936       .  S
C518        O519   1.273       .  A
C518        C987   1.491       .  S
O519       Cr533   2.054       .  S
O520        C521   1.258   1_655  A
O520      Cr1557   1.973       .  S
C521       C1001   1.479       .  S
O522       C1554   1.259       .  A
O522       Cr531   1.962       .  S
O523        C524   1.268       .  A
O523       Cr531   2.012       .  S
C524        O525   1.257       .  A
C524        C970   1.473       .  S
O525       Cr532   1.963       .  S
O526        C527   1.275       .  A
O526       Cr532   2.041       .  S
C527        O528   1.260       .  A
C527       C1012   1.500       .  S
O528       Cr533   1.963       .  S
O529        C530   1.278       .  A
O529      Cr1557   2.051   1_455  S
C530       O1546   1.264   1_455  A
C530        C945   1.485       .  S
Cr531      O1537   2.021       .  S
Cr531       O534   1.763       .  S
Cr532       O534   1.766       .  S
Cr533      O1544   1.970       .  S
Cr533      O1553   2.050       .  S
Cr533       O534   1.772       .  S
O535        C543   1.262       .  A
O535       Cr553   2.003       .  S
O536        C537   1.261       .  A
O536       Cr553   1.969       .  S
C537        O538   1.265       .  A
C537        C931   1.478       .  S
O538       Cr554   2.005       .  S
O539        C540   1.249       .  A
O539       Cr554   1.957       .  S
C540        O541   1.268       .  A
C540        C900   1.477       .  S
O541       Cr555   2.033       .  S
O542        C543   1.262       .  A
O542       Cr555   1.980       .  S
C543        C889   1.484       .  S
O544        C552   1.265       .  A
O544       Cr553   1.974       .  S
O545        C546   1.265       .  A
O545       Cr553   2.010       .  S
C546        O547   1.259       .  A
C546        C914   1.474       .  S
O547       Cr554   1.976       .  S
O548        C549   1.271       .  A
O548       Cr554   2.022       .  S
C549        O550   1.261       .  A
C549        C998   1.490       .  S
O550       Cr555   1.963       .  S
O551        C552   1.273       .  A
O551       Cr555   2.032       .  S
C552        C872   1.494       .  S
Cr553       O556   1.762       .  S
Cr554       O556   1.767       .  S
Cr555       O556   1.773       .  S
O557        C565   1.263       .  A
O557      Cr1599   2.010       .  S
O558        C559   1.258       .  A
O558       Cr575   1.962       .  S
C559        O560   1.267       .  A
C559        C858   1.465       .  S
O560       Cr576   2.017       .  S
O561        C562   1.243       .  A
O561       Cr576   1.934       .  S
C562        O563   1.275       .  A
C562        C830   1.481       .  S
O563       Cr577   2.056       .  S
O564        C565   1.260       .  A
O564      Cr1601   1.979       .  S
C565        C816   1.490       .  S
O566        C574   1.261       .  A
O566      Cr1599   1.954       .  S
O567        C568   1.270       .  A
O567       Cr575   2.014       .  S
C568        O569   1.255       .  A
C568        C847   1.475       .  S
O569       Cr576   1.962       .  S
O570        C571   1.272       .  A
O570       Cr576   2.029       .  S
C571        O572   1.256       .  A
C571        C886   1.493       .  S
O572       Cr577   1.960       .  S
O573        C574   1.277       .  A
O573      Cr1601   2.047       .  S
C574        C805   1.481       .  S
Cr575      O1581   2.017   1_455  S
Cr575      O1590   1.959   1_455  S
Cr575       O578   1.758       .  S
Cr576       O578   1.765       .  S
Cr577      O1588   1.979   1_455  S
Cr577      O1597   2.051   1_455  S
Cr577       O578   1.764       .  S
O579        C587   1.265       .  A
O579       Cr597   2.014       .  S
O580        C581   1.257       .  A
O580       Cr597   1.959       .  S
C581        O582   1.265       .  A
C581        C760   1.462       .  S
O582       Cr598   2.011       .  S
O583        C584   1.246       .  A
O583       Cr598   1.929       .  S
C584        O585   1.273       .  A
C584        C788   1.488       .  S
O585       Cr599   2.051       .  S
O586        C587   1.258       .  A
O586       Cr599   1.980       .  S
C587       C1015   1.495       .  S
O588        C596   1.261       .  A
O588       Cr597   1.959       .  S
O589        C590   1.268       .  A
O589       Cr597   2.011       .  S
C590        O591   1.257       .  A
C590        C774   1.467       .  S
O591       Cr598   1.960       .  S
O592        C593   1.272       .  A
O592       Cr598   2.031       .  S
C593        O594   1.258       .  A
C593        C819   1.497   1_556  S
O594       Cr599   1.966       .  S
O595        C596   1.279       .  A
O595       Cr599   2.051       .  S
C596        C746   1.496       .  S
Cr597       O600   1.761       .  S
Cr598       O600   1.768       .  S
Cr599       O600   1.768       .  S
O601        C609   1.266       .  A
O602        C603   1.257       .  A
O602       Cr619   1.962       .  S
C603        O604   1.266       .  A
C603        C861   1.469       .  S
O604       Cr620   2.018       .  S
O605        C606   1.243       .  A
O605       Cr620   1.926       .  S
C606        O607   1.275       .  A
C606        C777   1.492       .  S
O607       Cr621   2.064       .  S
O608        C609   1.261       .  A
C609        C718   1.495       .  S
O610        C618   1.261   1_545  A
O611        C612   1.269       .  A
O611       Cr619   2.014       .  S
C612        O613   1.255       .  A
C612        C791   1.464       .  S
O613       Cr620   1.955       .  S
O614        C615   1.274       .  A
O614       Cr620   2.035       .  S
C615        O616   1.260       .  A
C615        C732   1.498       .  S
O616       Cr621   1.970       .  S
O617        C618   1.281       .  A
C618        C942   1.496       .  S
Cr619       O622   1.757       .  S
Cr620       O622   1.762       .  S
Cr621       O622   1.768       .  S
O623        C631   1.262       .  A
O623       Cr641   2.011       .  S
O624        C625   1.255       .  A
O624       Cr641   1.952       .  S
C625        O626   1.268       .  A
C625        C763   1.458       .  S
O626       Cr642   2.016       .  S
O627        C628   1.248       .  A
O627       Cr642   1.934       .  S
C628        O629   1.273       .  A
C628        C973   1.492       .  S
O629       Cr643   2.045       .  S
O630        C631   1.258       .  A
O630       Cr643   1.983       .  S
C631        C735   1.489       .  S
O632        C640   1.262       .  A
O632       Cr641   1.953       .  S
O633        C634   1.266       .  A
O633       Cr641   2.012       .  S
C634        O635   1.256       .  A
C634        C984   1.473       .  S
O635       Cr642   1.969       .  S
O636        C637   1.272       .  A
O636       Cr642   2.031       .  S
C637        O638   1.260       .  A
C637        C704   1.502       .  S
O638       Cr643   1.965       .  S
O639        C640   1.280       .  A
O639       Cr643   2.052       .  S
C640        C875   1.500       .  S
Cr641       O644   1.764       .  S
Cr642       O644   1.773       .  S
Cr643       O644   1.769       .  S
O645        C653   1.262       .  A
O646        C647   1.257       .  A
O646       Cr663   1.953       .  S
C647        O648   1.269       .  A
C647        C959   1.468       .  S
O648       Cr664   2.017       .  S
O649        C650   1.250       .  A
O649       Cr664   1.949       .  S
C650        O651   1.272       .  A
C650        C917   1.499       .  S
O651       Cr665   2.047       .  S
O652        C653   1.260       .  A
C653        C707   1.493       .  S
O654        C662   1.262       .  A
O655        C656   1.265       .  A
O655       Cr663   2.006       .  S
C656        O657   1.256       .  A
C656        C903   1.473       .  S
O657       Cr664   1.974       .  S
O658        C659   1.272       .  A
O658       Cr664   2.024       .  S
C659        O660   1.264       .  A
C659        C693   1.496       .  S
O660       Cr665   1.977       .  S
O661        C662   1.277       .  A
C662        C802   1.498       .  S
Cr663       O666   1.766       .  S
Cr664       O666   1.764       .  S
Cr665       O666   1.769       .  S
O667        C675   1.259       .  A
O667       Cr685   1.990       .  S
O668        C669   1.264       .  A
O668       Cr685   1.986       .  S
C669        O670   1.265       .  A
C669        C928   1.468       .  S
O670       Cr686   1.991       .  S
O671        C672   1.249       .  A
O671       Cr686   1.964       .  S
C672        O673   1.263       .  A
C672        C844   1.481       .  S
O673       Cr687   2.028       .  S
O674        C675   1.262       .  A
O674       Cr687   1.997       .  S
C675        C690   1.500       .  S
O676        C684   1.267       .  A
O676       Cr685   2.006       .  S
O677        C678   1.266       .  A
O677       Cr685   1.997       .  S
C678        O679   1.251       .  A
C678        C833   1.486       .  S
O679       Cr686   1.965       .  S
O680        C681   1.270       .  A
O680       Cr686   1.992       .  S
C681        O682   1.272       .  A
C681        C721   1.488   1_554  S
O682       Cr687   2.010       .  S
O683        C684   1.266       .  A
O683       Cr687   1.995       .  S
C684        C749   1.482       .  S
Cr685       O688   1.778       .  S
Cr686       O688   1.775       .  S
Cr687       O688   1.777       .  S
C689        C690   1.409       .  A
C689        C694   1.410       .  A
C689        H696   1.083       .  S
C690        C691   1.415       .  A
C691        C692   1.408       .  A
C691        N698   1.432       .  S
C692        C693   1.407       .  A
C692        H697   1.084       .  S
C693        C694   1.416       .  A
C694        N695   1.438       .  S
N695        H699   1.046       .  S
N695        H700   1.046       .  S
N698        H701   1.046       .  S
N698        H702   1.045       .  S
C703        C704   1.412       .  A
C703        C708   1.400       .  A
C703        H710   1.083       .  S
C704        C705   1.419       .  A
C705        C706   1.405       .  A
C705        N712   1.432       .  S
C706        C707   1.409       .  A
C706        H711   1.084       .  S
C707        C708   1.415       .  A
C708        N709   1.433       .  S
N709        H713   1.045       .  S
N709        H714   1.045       .  S
N712        H715   1.047       .  S
N712        H716   1.044       .  S
C717        C718   1.406       .  A
C717        C722   1.406       .  A
C717        H724   1.083       .  S
C718        C719   1.416       .  A
C719        C720   1.408       .  A
C719        N726   1.432       .  S
C720        C721   1.403       .  A
C720        H725   1.084   1_556  S
C721        C722   1.415       .  A
C722        N723   1.439       .  S
N723        H727   1.046       .  S
N723        H728   1.045       .  S
C731        C732   1.408       .  A
C731        C736   1.409       .  A
C731        H738   1.083       .  S
C732        C733   1.417       .  A
C733        C734   1.406       .  A
C733        N740   1.433       .  S
C734        C735   1.403       .  A
C734        H739   1.084       .  S
C735        C736   1.413       .  A
C736        N737   1.432       .  S
N737        H741   1.046       .  S
N737        H742   1.046       .  S
N740        H743   1.046       .  S
N740        H744   1.046       .  S
C745        C746   1.409       .  A
C745        C750   1.400   1_556  A
C745        H752   1.084       .  S
C746        C747   1.415   1_556  A
C747        C748   1.415       .  A
C747        N754   1.435       .  S
C748        C749   1.405       .  A
C748        H753   1.084       .  S
C749        C750   1.410       .  A
C750        N751   1.433   1_554  S
N751        H755   1.044       .  S
N751        H756   1.046   1_556  S
N754        H757   1.044       .  S
N754        H758   1.045       .  S
C759        C760   1.403       .  A
C759        C764   1.398       .  A
C759        H766   1.084       .  S
C760        C761   1.409       .  A
C761        C762   1.400       .  A
C761        N768   1.438       .  S
C762        C763   1.403       .  A
C762        H767   1.084       .  S
C763        C764   1.406       .  A
C764        N765   1.438       .  S
N765        H769   1.046       .  S
N765        H770   1.046       .  S
N768        H771   1.045       .  S
N768        H772   1.046       .  S
C773        C774   1.409       .  A
C773        C778   1.414       .  A
C773        H780   1.084       .  S
C774        C775   1.397       .  A
C775        C776   1.396       .  A
C775        N782   1.439       .  S
C776        C777   1.417       .  A
C776        H781   1.083       .  S
C777        C778   1.410       .  A
C778        N779   1.436       .  S
N779        H783   1.046       .  S
N779        H784   1.045       .  S
N782        H785   1.046       .  S
N782        H786   1.045       .  S
C787        C788   1.415       .  A
C787        C792   1.393       .  A
C787        H794   1.083       .  S
C788        C789   1.410       .  A
C789       C1814   1.412       .  A
C789       N1820   1.437       .  S
C790       C1813   1.412       .  A
C790        C791   1.409       .  A
C790        H795   1.084       .  S
C791       C1816   1.393   1_455  A
C792       C1815   1.394       .  A
C792        N793   1.433       .  S
N793        H797   1.046       .  S
N793        H798   1.046       .  S
N796       C1813   1.436       .  S
N796       H1823   1.046   1_455  S
N796        H800   1.046       .  S
H799       N1820   1.046       .  S
C801        C802   1.408       .  A
C801        C806   1.396       .  A
C801        H808   1.084       .  S
C802        C803   1.418       .  A
C803        C804   1.417       .  A
C803        N810   1.437       .  S
C804        C805   1.406       .  A
C804        H809   1.084       .  S
C805        C806   1.414       .  A
C806       N1831   1.441       .  S
N807       C1830   1.440   1_455  S
N807        H811   1.045       .  S
N807        H812   1.044       .  S
N810        H813   1.046       .  S
N810        H814   1.046       .  S
C815        C816   1.401       .  A
C815        C820   1.400       .  A
C815        H822   1.084       .  S
C816        C817   1.420       .  A
C817        C818   1.406       .  A
C817        N824   1.432       .  S
C818        C819   1.407       .  A
C818        H823   1.084       .  S
C819        C820   1.417       .  A
C820        N821   1.431       .  S
N821        H825   1.046       .  S
N821        H826   1.046       .  S
N824        H827   1.045       .  S
N824        H828   1.045       .  S
C829        C830   1.398       .  A
C829        C834   1.407       .  A
C829        H836   1.084       .  S
C830        C831   1.424       .  A
C831        C832   1.395       .  A
C831        N838   1.434       .  S
C832        C833   1.397       .  A
C832        H837   1.084       .  S
C833        C834   1.422       .  A
C834        N835   1.433       .  S
N835        H839   1.046       .  S
N835        H840   1.046       .  S
N838        H841   1.044       .  S
N838        H842   1.045       .  S
C843        C848   1.413       .  A
C843        H850   1.083       .  S
C844        C845   1.417       .  A
C845        C846   1.392       .  A
C845        N852   1.431       .  S
C846        H851   1.085       .  S
C847        C848   1.418       .  A
C848        N849   1.437       .  S
N849        H853   1.046       .  S
N849        H854   1.045       .  S
N852        H855   1.046       .  S
N852        H856   1.046       .  S
C857        C858   1.404       .  A
C857        C862   1.395   1_554  A
C857        H864   1.085       .  S
C858        C859   1.407       .  A
C859        C860   1.403       .  A
C859        N866   1.438       .  S
C860        C861   1.406   1_554  A
C860        H865   1.084   1_554  S
C861        C862   1.411       .  A
C862        N863   1.433       .  S
N863        H867   1.046       .  S
N863        H868   1.045       .  S
N866        H869   1.045       .  S
N866        H870   1.046       .  S
C871        C872   1.410       .  A
C871        C876   1.417       .  A
C871        H878   1.083       .  S
C872        C873   1.412       .  A
C873        C874   1.403       .  A
C873        N880   1.439       .  S
C874        C875   1.409       .  A
C874        H879   1.083       .  S
C875        C876   1.416       .  A
C876        N877   1.437       .  S
N877        H881   1.046       .  S
N877        H882   1.046       .  S
N880        H883   1.046       .  S
N880        H884   1.046       .  S
C885        C886   1.407       .  A
C885        C890   1.409       .  A
C885        H892   1.083       .  S
C886        C887   1.423       .  A
C887        C888   1.396       .  A
C887        N894   1.432       .  S
C888        C889   1.399       .  A
C888        H893   1.084       .  S
C889        C890   1.416       .  A
C890        N891   1.438       .  S
N891        H895   1.046       .  S
N891        H896   1.045       .  S
N894        H897   1.044       .  S
N894       H1922   1.044       .  S
H898       N1918   1.044       .  S
C899        C900   1.410   1_655  A
C899       C1928   1.407       .  A
C899        H906   1.084   1_655  S
C900       C1925   1.409   1_455  A
C901       C1924   1.407       .  A
C901        C902   1.399       .  A
C901        N908   1.438       .  S
C902        C903   1.404       .  A
C902        H907   1.084       .  S
C903        C904   1.405       .  A
C904       C1923   1.408       .  A
C904       N1929   1.432       .  S
N905       C1928   1.431       .  S
N905        H909   1.046       .  S
N905       H1934   1.045       .  S
N908        H911   1.045       .  S
N908        H912   1.046       .  S
H910       N1929   1.045       .  S
C913        C914   1.404       .  A
C913        C918   1.404       .  A
C913        H920   1.083       .  S
C914        C915   1.401       .  A
C915        C916   1.406       .  A
C915        N922   1.437       .  S
C916        C917   1.417       .  A
C916        H921   1.083       .  S
C917        C918   1.418       .  A
C918        N919   1.432       .  S
N919        H923   1.045       .  S
N919        H924   1.045       .  S
N922        H925   1.045       .  S
N922        H926   1.046       .  S
C927        C928   1.400       .  A
C927        C932   1.403       .  A
C927        H934   1.084       .  S
C928        C929   1.411       .  A
C929        C930   1.398       .  A
C929        N936   1.439       .  S
C930        C931   1.404       .  A
C930        H935   1.084       .  S
C931        C932   1.414       .  A
C932        N933   1.432       .  S
N933        H937   1.045       .  S
N933        H938   1.046       .  S
N936        H939   1.046       .  S
N936        H940   1.046       .  S
C941        C942   1.407       .  A
C941        C946   1.415       .  A
C941        H948   1.084       .  S
C942        C943   1.418       .  A
C943        C944   1.403       .  A
C943        N950   1.439       .  S
C944        C945   1.397       .  A
C944       H1973   1.084   1_455  S
C945        C946   1.422       .  A
C946        N947   1.438       .  S
N947        H951   1.046       .  S
N947        H952   1.043       .  S
H949       C1968   1.084       .  S
N950        H953   1.046       .  S
N950        H954   1.045   1_455  S
C955        C956   1.401       .  A
C955        C960   1.401       .  A
C955        H962   1.084       .  S
C956        C957   1.410       .  A
C957        C958   1.397       .  A
C957        N964   1.439       .  S
C958        C959   1.403       .  A
C958        H963   1.084       .  S
C959        C960   1.408       .  A
C960        N961   1.432       .  S
N961        H965   1.045       .  S
N961        H966   1.046       .  S
N964        H967   1.046       .  S
N964        H968   1.046       .  S
C969        C970   1.410       .  A
C969        H976   1.084       .  S
C970        C971   1.398   1_565  A
C971        N978   1.438       .  S
C972        C973   1.417       .  A
C972        H977   1.084       .  S
C973        C974   1.410       .  A
C974        N975   1.437       .  S
N975        H980   1.046       .  S
N978        H981   1.045   1_545  S
C983        C984   1.392       .  A
C983        C988   1.397       .  A
C983        H990   1.085       .  S
C984        C985   1.416       .  A
C985        C986   1.412       .  A
C985        N992   1.437       .  S
C986        C987   1.403       .  A
C986        H991   1.083       .  S
C987        C988   1.424       .  A
C988        N989   1.434       .  S
N989        H993   1.046       .  S
N989        H994   1.046       .  S
N992        H995   1.042       .  S
N992        H996   1.046       .  S
C997        C998   1.409       .  A
C997       C1002   1.400       .  A
C997       H1004   1.083       .  S
C998        C999   1.417       .  A
C999       C1000   1.407       .  A
C999       N1006   1.438       .  S
C1000      C1001   1.404       .  A
C1000      H1005   1.084       .  S
C1001      C1002   1.406       .  A
C1002      N2027   1.433       .  S
N1003      C2026   1.433       .  S
N1003      H1007   1.046       .  S
N1003      H1008   1.046       .  S
N1006      H1009   1.046       .  S
N1006      H1010   1.046       .  S
C1011      C1012   1.410       .  A
C1011      C1016   1.403       .  A
C1011      H1018   1.083       .  S
C1012      C1013   1.416       .  A
C1013      C1014   1.413       .  A
C1013      N1020   1.437       .  S
C1014      C1015   1.408       .  A
C1014      H1019   1.083       .  S
C1015      C1016   1.412       .  A
C1016      N1017   1.433       .  S
N1017      H1021   1.046       .  S
N1017      H1022   1.046       .  S
N1020      H1023   1.046       .  S
N1020      H1024   1.045       .  S
O1025      C1033   1.270       .  A
O1026      C1027   1.259       .  A
O1026     Cr1043   1.957       .  S
C1027      O1028   1.266       .  A
C1027      C1468   1.458       .  S
O1028     Cr1044   2.004       .  S
O1029      C1030   1.247       .  A
O1029     Cr1044   1.940       .  S
C1030      O1031   1.271       .  A
C1030      C1499   1.486       .  S
O1031     Cr1045   2.051       .  S
O1032      C1033   1.260       .  A
C1033      C1513   1.485       .  S
O1034     Cr1043   1.966       .  S
O1035      C1036   1.267       .  A
O1035     Cr1043   2.019       .  S
C1036      O1037   1.259       .  A
C1036      C1482   1.487       .  S
O1037     Cr1044   1.979       .  S
O1038      C1039   1.271       .  A
O1038     Cr1044   2.024       .  S
C1039      O1040   1.262       .  A
C1039      C1524   1.497       .  S
O1040     Cr1045   1.974       .  S
O1041      C1042   1.274       .  A
C1042      C1457   1.484       .  S
Cr1043     O1046   1.769       .  S
Cr1044     O1046   1.765       .  S
Cr1045     O1046   1.774       .  S
O1047      C1055   1.264       .  A
O1047     Cr1065   2.008       .  S
O1048      C1049   1.260       .  A
O1048     Cr1065   1.964       .  S
C1049      O1050   1.265       .  A
C1049      C1443   1.480       .  S
O1050     Cr1066   2.008       .  S
O1051      C1052   1.248       .  A
O1051     Cr1066   1.957       .  S
C1052      O1053   1.267       .  A
C1052      C1412   1.470       .  S
O1053     Cr1067   2.030       .  S
O1054      C1055   1.264       .  A
O1054     Cr1067   1.993       .  S
C1055      C1401   1.500       .  S
O1056      C1064   1.263       .  A
O1056     Cr1065   1.976       .  S
O1057      C1058   1.265       .  A
O1057     Cr1065   2.000       .  S
C1058      O1059   1.259       .  A
C1058      C1426   1.473       .  S
O1059     Cr1066   1.974       .  S
O1060      C1061   1.273       .  A
O1060     Cr1066   2.030       .  S
C1061      O1062   1.264       .  A
C1061      C1510   1.498       .  S
O1062     Cr1067   1.972       .  S
O1063      C1064   1.274       .  A
O1063     Cr1067   2.034       .  S
C1064      C1384   1.499       .  S
Cr1065     O1068   1.761       .  S
Cr1066     O1068   1.772       .  S
Cr1067     O1068   1.771       .  S
O1069      C1077   1.265       .  A
O1070      C1071   1.258       .  A
O1070     Cr1087   1.955       .  S
C1071      O1072   1.273       .  A
C1071      C1370   1.466       .  S
O1072     Cr1088   2.034       .  S
O1073      C1074   1.247       .  A
O1073     Cr1088   1.937       .  S
C1074      O1075   1.273       .  A
C1074      C1342   1.477       .  S
O1075     Cr1089   2.047       .  S
O1076      C1077   1.260       .  A
C1077      C1328   1.492       .  S
O1078      C1086   1.261   1_455  A
O1079      C1080   1.266       .  A
O1079     Cr1087   2.009       .  S
C1080      O1081   1.255       .  A
C1080      C1359   1.481       .  S
O1081     Cr1088   1.970       .  S
O1082      C1083   1.275       .  A
O1082     Cr1088   2.040       .  S
C1083      O1084   1.257       .  A
C1083      C1398   1.505       .  S
O1084     Cr1089   1.964       .  S
O1085      C1086   1.279       .  A
C1086      C1317   1.489       .  S
Cr1087     O1090   1.763       .  S
Cr1088     O1090   1.770       .  S
Cr1089     O1090   1.769       .  S
O1091      C1099   1.262       .  A
O1091     Cr1109   2.006       .  S
O1092      C1093   1.258       .  A
O1092     Cr1109   1.959       .  S
C1093      O1094   1.264       .  A
C1093      C1272   1.455       .  S
O1094     Cr1110   2.002       .  S
O1095      C1096   1.248       .  A
O1095     Cr1110   1.936       .  S
C1096      O1097   1.273       .  A
C1096      C1300   1.493       .  S
O1097     Cr1111   2.044       .  S
O1098      C1099   1.258       .  A
O1098     Cr1111   1.984       .  S
C1099      C1527   1.486       .  S
O1100      C1108   1.263       .  A
O1100     Cr1109   1.957       .  S
O1101      C1102   1.266       .  A
O1101     Cr1109   2.008       .  S
C1102      O1103   1.260       .  A
C1102      C1286   1.477       .  S
O1103     Cr1110   1.972       .  S
O1104      C1105   1.271       .  A
O1104     Cr1110   2.026       .  S
C1105      O1106   1.259       .  A
C1105      C1331   1.499   1_556  S
O1106     Cr1111   1.969       .  S
O1107      C1108   1.278       .  A
O1107     Cr1111   2.045       .  S
C1108      C1258   1.491       .  S
Cr1109     O1112   1.766       .  S
Cr1110     O1112   1.774       .  S
Cr1111     O1112   1.773       .  S
O1113      C1121   1.266       .  A
O1113     Cr1643   2.015       .  S
O1114      C1115   1.258       .  A
O1114     Cr1131   1.963       .  S
C1115      O1116   1.269       .  A
C1115      C1373   1.482       .  S
O1116     Cr1132   2.022       .  S
O1117      C1118   1.244       .  A
O1117     Cr1132   1.932       .  S
C1118      O1119   1.275       .  A
C1118      C1289   1.493       .  S
O1119     Cr1133   2.066       .  S
O1120      C1121   1.262       .  A
O1120     Cr1645   1.982       .  S
C1121      C1230   1.495       .  S
O1122      C1130   1.259       .  A
O1122     Cr1643   1.954       .  S
O1123      C1124   1.269       .  A
O1123     Cr1131   2.021       .  S
C1124      O1125   1.256       .  A
C1124      C1303   1.472       .  S
O1125     Cr1132   1.961       .  S
O1126      C1127   1.276       .  A
O1126     Cr1132   2.044       .  S
C1127      O1128   1.258       .  A
C1127      C1244   1.497       .  S
O1128     Cr1133   1.958       .  S
O1129      C1130   1.281       .  A
O1129     Cr1645   2.062       .  S
C1130      C1454   1.499       .  S
Cr1131     O1625   2.012   1_545  S
Cr1131     O1634   1.963       .  S
Cr1131     O1134   1.761       .  S
Cr1132     O1134   1.762       .  S
Cr1133     O1632   1.978   1_545  S
Cr1133     O1641   2.058   1_545  S
Cr1133     O1134   1.768       .  S
O1135      C1143   1.259       .  A
O1135     Cr1153   1.999       .  S
O1136      C1137   1.257       .  A
O1136     Cr1153   1.954       .  S
C1137      O1138   1.265       .  A
C1137      C1275   1.454       .  S
O1138     Cr1154   2.004       .  S
O1139      C1140   1.249       .  A
O1139     Cr1154   1.956       .  S
C1140      O1141   1.270       .  A
C1140      C1485   1.477       .  S
O1141     Cr1155   2.035       .  S
O1142      C1143   1.259       .  A
O1142     Cr1155   1.991       .  S
C1143      C1247   1.487       .  S
O1144      C1152   1.262       .  A
O1144     Cr1153   1.960       .  S
O1145      C1146   1.263       .  A
O1145     Cr1153   1.988       .  S
C1146      O1147   1.262       .  A
C1146      C1496   1.481       .  S
O1147     Cr1154   1.985       .  S
O1148      C1149   1.273       .  A
O1148     Cr1154   2.033       .  S
C1149      O1150   1.263       .  A
C1149      C1216   1.505       .  S
O1150     Cr1155   1.972       .  S
O1151      C1152   1.278       .  A
O1151     Cr1155   2.048       .  S
C1152      C1387   1.495       .  S
Cr1153     O1156   1.763       .  S
Cr1154     O1156   1.775       .  S
Cr1155     O1156   1.771       .  S
O1157      C1165   1.266       .  A
O1157     Cr1687   2.013   1_545  S
O1158      C1159   1.259       .  A
O1158     Cr1175   1.961       .  S
C1159      O1160   1.264       .  A
C1159      C1471   1.465       .  S
O1160     Cr1176   2.003       .  S
O1161      C1162   1.250       .  A
O1161     Cr1176   1.945       .  S
C1162      O1163   1.271       .  A
C1162      C1429   1.491       .  S
O1163     Cr1177   2.047       .  S
O1164      C1165   1.260       .  A
O1164     Cr1689   1.987   1_545  S
C1165      C1219   1.499       .  S
O1166      C1174   1.263   1_565  A
O1166     Cr1687   1.962       .  S
O1167      C1168   1.265       .  A
O1167     Cr1175   2.005       .  S
C1168      O1169   1.259       .  A
C1168      C1415   1.476       .  S
O1169     Cr1176   1.978       .  S
O1170      C1171   1.270       .  A
O1170     Cr1176   2.016       .  S
C1171      O1172   1.263       .  A
C1171      C1205   1.488       .  S
O1172     Cr1177   1.978       .  S
O1173      C1174   1.280       .  A
O1173     Cr1689   2.057   1_545  S
C1174      C1314   1.505       .  S
Cr1175     O1669   2.002       .  S
Cr1175     O1678   1.959       .  S
Cr1175     O1178   1.763       .  S
Cr1176     O1178   1.763       .  S
Cr1177     O1676   1.988       .  S
Cr1177     O1685   2.052       .  S
Cr1177     O1178   1.773       .  S
O1179      C1187   1.256       .  A
O1179     Cr1197   1.979       .  S
O1180      C1181   1.264       .  A
O1180     Cr1197   1.985       .  S
C1181      O1182   1.266       .  A
C1181      C1440   1.471       .  S
O1182     Cr1198   1.991       .  S
O1183      C1184   1.253       .  A
O1183     Cr1198   1.971       .  S
C1184      O1185   1.263       .  A
C1184      C1356   1.475       .  S
O1185     Cr1199   2.014       .  S
O1186      C1187   1.261       .  A
O1186     Cr1199   2.000       .  S
C1187      C1202   1.496       .  S
O1188      C1196   1.267       .  A
O1188     Cr1197   2.005       .  S
O1189      C1190   1.264       .  A
O1189     Cr1197   1.992       .  S
C1190      O1191   1.252       .  A
C1190      C1345   1.482       .  S
O1191     Cr1198   1.969       .  S
O1192      C1193   1.270       .  A
O1192     Cr1198   1.999       .  S
C1193      O1194   1.269       .  A
C1193      C1233   1.492   1_554  S
O1194     Cr1199   2.005       .  S
O1195      C1196   1.263       .  A
O1195     Cr1199   1.983       .  S
C1196      C1261   1.474       .  S
Cr1197     O1200   1.780       .  S
Cr1198     O1200   1.776       .  S
Cr1199     O1200   1.779       .  S
C1201      C1202   1.409       .  A
C1201      C1206   1.410       .  A
C1201      H1208   1.083       .  S
C1202      C1203   1.416       .  A
C1203      C1204   1.404       .  A
C1203      N1210   1.433       .  S
C1204      C1205   1.405       .  A
C1204      H1209   1.084       .  S
C1205      C1206   1.413       .  A
C1206      N1207   1.438       .  S
N1207      H1211   1.045       .  S
N1207      H1212   1.046       .  S
N1210      H1213   1.046       .  S
N1210      H1214   1.046       .  S
C1215      C1216   1.411       .  A
C1215      C1220   1.402       .  A
C1215      H1222   1.083       .  S
C1216      C1217   1.421       .  A
C1217      C1218   1.406       .  A
C1217      N1224   1.432       .  S
C1218      C1219   1.409       .  A
C1218      H1223   1.084       .  S
C1219      C1220   1.418       .  A
C1220      N1221   1.433       .  S
N1221      H1225   1.044       .  S
N1221      H1226   1.046       .  S
N1224      H1227   1.045       .  S
N1224      H1228   1.045       .  S
C1229      C1230   1.405       .  A
C1229      C1234   1.405       .  A
C1229      H1236   1.083       .  S
C1230      C1231   1.416       .  A
C1231      C1232   1.410       .  A
C1231      N1238   1.432       .  S
C1232      C1233   1.404       .  A
C1232      H1237   1.084       .  S
C1233      C1234   1.418       .  A
C1234      N1235   1.439       .  S
N1235      H1239   1.046       .  S
N1235      H1240   1.045       .  S
N1238      H1753   1.045       .  S
N1238      H1754   1.046       .  S
H1241      N1750   1.046       .  S
H1242      N1750   1.046       .  S
C1243      C1244   1.407       .  A
C1243      C1248   1.409       .  A
C1243      H1250   1.084       .  S
C1244      C1245   1.419       .  A
C1245      C1246   1.403       .  A
C1245      N1252   1.433       .  S
C1246      C1247   1.399       .  A
C1246      H1251   1.084       .  S
C1247      C1248   1.414       .  A
C1248      N1249   1.433       .  S
N1249      H1253   1.046       .  S
N1249      H1254   1.045       .  S
N1252      H1255   1.046       .  S
N1252      H1256   1.045       .  S
C1257      C1258   1.408       .  A
C1257      C1262   1.397   1_556  A
C1257      H1264   1.084       .  S
C1258      C1259   1.415   1_556  A
C1259      C1260   1.413       .  A
C1259      N1266   1.435       .  S
C1260      C1261   1.403       .  A
C1260      H1265   1.084       .  S
C1261      C1262   1.408       .  A
C1262      N1263   1.434   1_554  S
N1263      H1267   1.045       .  S
N1263      H1268   1.045   1_556  S
N1266      H1269   1.042       .  S
N1266      H1270   1.046       .  S
C1271      C1272   1.401       .  A
C1271      C1276   1.397       .  A
C1271      H1278   1.084       .  S
C1272      C1273   1.408       .  A
C1273      C1274   1.396       .  A
C1273      N1280   1.437       .  S
C1274      C1275   1.400       .  A
C1274      H1279   1.085       .  S
C1275      C1276   1.408       .  A
C1276      N1277   1.439       .  S
N1277      H1281   1.046       .  S
N1277      H1282   1.046       .  S
N1280      H1283   1.045       .  S
N1280      H1284   1.046       .  S
C1285      C1286   1.411       .  A
C1285      C1290   1.413       .  A
C1285      H1292   1.084       .  S
C1286      C1287   1.402       .  A
C1287      C1288   1.401       .  A
C1287      N1294   1.439       .  S
C1288      C1289   1.415       .  A
C1288      H1293   1.083       .  S
C1289      C1290   1.406       .  A
C1290      N1291   1.431       .  S
N1291      H1295   1.045       .  S
N1291      H1296   1.045       .  S
N1294      H1297   1.044       .  S
N1294      H1298   1.047       .  S
C1299      C1300   1.417       .  A
C1299      C1304   1.399       .  A
C1299      H1306   1.084       .  S
C1300      C1301   1.411   1_655  A
C1302      C1303   1.408       .  A
C1302      H1307   1.084       .  S
C1304      N1305   1.432       .  S
N1305      H1309   1.046       .  S
N1305      H1310   1.045       .  S
N1308      H1312   1.046       .  S
C1313      C1314   1.409       .  A
C1313      C1318   1.401       .  A
C1313      H1320   1.084       .  S
C1314      C1315   1.417       .  A
C1315      C1316   1.419       .  A
C1315      N1322   1.436       .  S
C1316      C1317   1.407       .  A
C1316      H1321   1.084       .  S
C1317      C1318   1.418       .  A
N1319      H1323   1.046       .  S
N1319      H1324   1.046       .  S
N1322      H1325   1.045       .  S
N1322      H1326   1.046       .  S
C1327      C1328   1.403       .  A
C1327      C1332   1.402       .  A
C1327      H1334   1.084       .  S
C1328      C1329   1.420       .  A
C1329      C1330   1.405       .  A
C1329      N1336   1.432       .  S
C1330      C1331   1.407       .  A
C1330      H1335   1.083       .  S
C1331      C1332   1.417       .  A
C1332      N1333   1.431       .  S
N1333      H1337   1.046       .  S
N1333      H1338   1.046       .  S
N1336      H1339   1.045       .  S
N1336      H1340   1.045       .  S
C1341      C1342   1.399       .  A
C1341      C1346   1.408       .  A
C1341      H1348   1.084       .  S
C1342      C1343   1.419       .  A
C1343      C1344   1.398       .  A
C1343      N1350   1.434       .  S
C1344      C1345   1.401       .  A
C1344      H1349   1.084       .  S
C1345      C1346   1.418       .  A
C1346      N1347   1.432       .  S
N1347      H1351   1.046       .  S
N1347      H1352   1.045       .  S
N1350      H1353   1.044       .  S
N1350      H1354   1.046       .  S
C1355      C1868   1.402       .  A
C1355      C1360   1.415   1_565  A
C1355      H1362   1.083   1_565  S
C1356      C1867   1.400       .  A
C1356      C1357   1.415       .  A
C1357      C1358   1.393       .  A
C1357      N1364   1.431       .  S
C1358      C1871   1.392       .  A
C1358      H1363   1.085       .  S
C1359      C1870   1.396   1_545  A
C1359      C1360   1.419       .  A
C1360      N1361   1.437       .  S
N1361      H1365   1.046       .  S
N1361      H1366   1.045       .  S
N1364      H1367   1.046       .  S
N1364      H1368   1.045       .  S
C1369      C1370   1.402       .  A
C1369      C1374   1.397   1_554  A
C1369      H1376   1.085       .  S
C1370      C1371   1.406       .  A
C1371      C1372   1.406       .  A
C1371      N1378   1.438       .  S
C1372      C1373   1.411   1_554  A
C1372      H1377   1.084   1_554  S
C1373      C1374   1.415       .  A
C1374      N1375   1.432       .  S
N1375      H1379   1.045       .  S
N1375      H1380   1.045       .  S
N1378      H1381   1.046       .  S
N1378      H1382   1.046       .  S
C1383      C1384   1.410       .  A
C1383      C1388   1.416       .  A
C1383      H1390   1.083       .  S
C1384      C1385   1.413       .  A
C1385      C1386   1.402       .  A
C1385      N1392   1.431       .  S
C1386      C1387   1.405       .  A
C1386      H1391   1.084       .  S
C1387      C1388   1.415       .  A
C1388      N1389   1.437       .  S
N1389      H1393   1.046       .  S
N1389      H1394   1.046       .  S
N1392      H1395   1.046       .  S
N1392      H1396   1.046       .  S
C1397      C1398   1.407       .  A
C1397      C1402   1.414       .  A
C1397      H1404   1.083       .  S
C1398      C1399   1.426       .  A
C1399      C1400   1.401       .  A
C1399      N1406   1.433       .  S
C1400      C1401   1.402       .  A
C1400      H1405   1.084       .  S
C1401      C1402   1.420       .  A
C1402      N1403   1.438       .  S
N1403      H1407   1.045       .  S
N1403      H1408   1.046       .  S
N1406      H1409   1.045       .  S
C1411      C1412   1.408       .  A
C1411      H1418   1.084       .  S
C1413      C1414   1.401       .  A
C1413      N1420   1.439   1_655  S
C1414      C1415   1.407       .  A
C1414      H1419   1.084       .  S
C1415      C1416   1.404       .  A
N1417      H1421   1.046       .  S
N1420      H1423   1.045   1_455  S
N1420      H1424   1.046   1_455  S
C1425      C1426   1.408       .  A
C1425      C1430   1.409       .  A
C1425      H1432   1.084       .  S
C1426      C1427   1.402       .  A
C1427      C1428   1.396       .  A
C1427      N1434   1.437       .  S
C1428      C1429   1.411       .  A
C1428      H1433   1.083       .  S
C1429      C1430   1.416       .  A
C1430      N1431   1.431       .  S
N1431      H1435   1.045       .  S
N1431      H1436   1.045       .  S
N1434      H1437   1.044       .  S
N1434      H1438   1.046       .  S
C1439      C1440   1.402       .  A
C1439      C1444   1.405       .  A
C1439      H1446   1.083       .  S
C1440      C1441   1.409       .  A
C1441      C1442   1.394       .  A
C1441      N1448   1.433       .  S
C1442      C1443   1.404       .  A
C1442      H1447   1.084       .  S
C1443      C1444   1.415       .  A
C1444      N1445   1.432       .  S
N1445      H1449   1.046       .  S
N1445      H1450   1.046       .  S
N1448      H1451   1.046       .  S
N1448      H1452   1.046       .  S
C1453      C1454   1.408       .  A
C1453      C1458   1.411       .  A
C1453      H1460   1.083       .  S
C1454      C1455   1.422       .  A
C1455      C1456   1.404       .  A
C1455      N1462   1.439       .  S
C1456      C1457   1.398       .  A
C1457      C1458   1.415       .  A
C1458      N1459   1.432       .  S
N1459      H1463   1.045       .  S
N1459      H1464   1.046       .  S
N1462      H1465   1.046       .  S
N1462      H1466   1.046       .  S
C1467      C1468   1.400       .  A
C1467      C1472   1.403       .  A
C1467      H1474   1.084       .  S
C1468      C1469   1.407       .  A
C1469      C1470   1.394       .  A
C1469      N1476   1.439       .  S
C1470      C1471   1.401       .  A
C1470      H1475   1.084       .  S
C1471      C1472   1.413       .  A
C1472      N1473   1.438       .  S
N1473      H1477   1.046       .  S
N1473      H1478   1.045       .  S
N1476      H1479   1.045       .  S
N1476      H1480   1.046       .  S
C1481      C1482   1.408       .  A
C1481      C1998   1.404       .  A
C1481      H1488   1.081       .  S
C1482      C1483   1.408       .  A
C1483      C1996   1.414       .  A
C1483      N1490   1.436       .  S
C1484      C1995   1.416   1_545  A
C1484      C1485   1.412       .  A
C1484      H1489   1.084       .  S
C1485      C1486   1.404       .  A
C1486      C1993   1.400   1_545  A
C1486      N1487   1.439       .  S
N1487      H2003   1.046   1_545  S
N1487      H1492   1.045       .  S
N1490      H1493   1.045       .  S
N1490      H2006   1.046       .  S
H1491      N1999   1.046       .  S
H1494      N2002   1.046       .  S
C1495      C1496   1.398       .  A
C1495      C1500   1.393       .  A
C1495      H1502   1.085       .  S
C1496      C1497   1.419       .  A
C1497      C1498   1.419       .  A
C1497      N1504   1.437       .  S
C1498      C1499   1.405       .  A
C1498      H1503   1.083       .  S
C1499      C1500   1.415       .  A
C1500      N1501   1.435       .  S
N1501      H1505   1.046       .  S
N1501      H1506   1.046       .  S
N1504      H1507   1.046       .  S
N1504      H1508   1.045       .  S
C1509      C1510   1.408       .  A
C1509      C1514   1.402       .  A
C1509      H1516   1.083       .  S
C1510      C1511   1.420       .  A
C1511      C1512   1.412       .  A
C1511      N1518   1.437       .  S
C1512      C1513   1.404       .  A
C1512      H1517   1.084       .  S
C1513      C1514   1.408       .  A
N1515      H1519   1.046       .  S
N1515      H1520   1.046       .  S
N1518      H1521   1.046       .  S
N1518      H1522   1.045       .  S
C1523      C1524   1.410       .  A
C1523      C1528   1.406       .  A
C1523      H1530   1.084       .  S
C1524      C1525   1.419       .  A
C1525      C1526   1.410       .  A
C1525      N1532   1.438       .  S
C1526      C1527   1.404       .  A
C1526      H1531   1.084       .  S
C1527      C1528   1.407       .  A
C1528      N1529   1.432       .  S
N1529      H1533   1.046       .  S
N1529      H1534   1.045       .  S
N1532      H1535   1.046       .  S
N1532      H1536   1.046       .  S
O1537      C1545   1.269       .  A
O1538      C1539   1.259       .  A
O1538     Cr1555   1.957       .  S
C1539      O1540   1.267       .  A
C1539      C1980   1.463       .  S
O1540     Cr1556   2.007       .  S
O1541      C1542   1.246       .  A
O1541     Cr1556   1.941       .  S
C1542      O1543   1.273       .  A
C1542      C2011   1.498       .  S
O1543     Cr1557   2.057       .  S
O1544      C1545   1.258       .  A
C1545      C2025   1.487       .  S
O1546     Cr1555   1.967       .  S
O1547      C1548   1.265       .  A
O1547     Cr1555   2.010       .  S
C1548      O1549   1.259       .  A
C1548      C1994   1.486       .  S
O1549     Cr1556   1.981       .  S
O1550      C1551   1.272       .  A
O1550     Cr1556   2.027       .  S
C1551      O1552   1.261       .  A
C1551      C2036   1.496       .  S
O1552     Cr1557   1.965       .  S
O1553      C1554   1.276       .  A
C1554      C1969   1.485       .  S
Cr1555     O1558   1.767       .  S
Cr1556     O1558   1.767       .  S
Cr1557     O1558   1.773       .  S
O1559      C1567   1.266       .  A
O1559     Cr1577   2.014       .  S
O1560      C1561   1.260       .  A
O1560     Cr1577   1.965       .  S
C1561      O1562   1.263       .  A
C1561      C1955   1.474       .  S
O1562     Cr1578   2.002       .  S
O1563      C1564   1.248       .  A
O1563     Cr1578   1.957       .  S
C1564      O1565   1.267       .  A
C1564      C1924   1.469       .  S
O1565     Cr1579   2.030       .  S
O1566      C1567   1.264       .  A
O1566     Cr1579   1.990       .  S
C1567      C1913   1.496       .  S
O1568      C1576   1.262       .  A
O1568     Cr1577   1.971       .  S
O1569      C1570   1.267       .  A
O1569     Cr1577   2.010       .  S
C1570      O1571   1.258       .  A
C1570      C1938   1.470       .  S
O1571     Cr1578   1.969       .  S
O1572      C1573   1.272       .  A
O1572     Cr1578   2.028       .  S
C1573      O1574   1.264       .  A
C1573      C2022   1.499       .  S
O1574     Cr1579   1.975       .  S
O1575      C1576   1.273       .  A
O1575     Cr1579   2.031       .  S
C1576      C1896   1.497       .  S
Cr1577     O1580   1.761       .  S
Cr1578     O1580   1.769       .  S
Cr1579     O1580   1.772       .  S
O1581      C1589   1.265       .  A
O1582      C1583   1.258       .  A
O1582     Cr1599   1.957       .  S
C1583      O1584   1.270       .  A
C1583      C1882   1.468       .  S
O1584     Cr1600   2.027       .  S
O1585      C1586   1.244       .  A
O1585     Cr1600   1.930       .  S
C1586      O1587   1.274       .  A
C1586      C1854   1.482       .  S
O1587     Cr1601   2.051       .  S
O1588      C1589   1.260       .  A
C1589      C1840   1.497       .  S
O1590      C1598   1.260       .  A
O1591      C1592   1.266       .  A
O1591     Cr1599   2.008       .  S
C1592      O1593   1.252       .  A
C1592      C1871   1.466       .  S
O1593     Cr1600   1.957       .  S
O1594      C1595   1.274       .  A
O1594     Cr1600   2.036       .  S
C1595      O1596   1.257       .  A
C1595      C1910   1.501       .  S
O1596     Cr1601   1.967       .  S
O1597      C1598   1.278       .  A
C1598      C1829   1.484       .  S
Cr1599     O1602   1.765       .  S
Cr1600     O1602   1.766       .  S
Cr1601     O1602   1.764       .  S
O1603      C1611   1.263       .  A
O1603     Cr1621   2.011       .  S
O1604      C1605   1.259       .  A
O1604     Cr1621   1.963       .  S
C1605      O1606   1.267       .  A
C1605      C1784   1.461       .  S
O1606     Cr1622   2.014       .  S
O1607      C1608   1.246       .  A
O1607     Cr1622   1.924       .  S
C1608      O1609   1.273       .  A
C1608      C1812   1.489       .  S
O1609     Cr1623   2.047       .  S
O1610      C1611   1.256       .  A
O1610     Cr1623   1.977       .  S
C1611      C2039   1.491       .  S
O1612      C1620   1.262       .  A
O1612     Cr1621   1.956       .  S
O1613      C1614   1.266       .  A
O1613     Cr1621   2.004       .  S
C1614      O1615   1.259       .  A
C1614      C1798   1.477       .  S
O1615     Cr1622   1.968       .  S
O1616      C1617   1.273       .  A
O1616     Cr1622   2.036       .  S
C1617      O1618   1.257       .  A
C1617      C1843   1.500   1_556  S
O1618     Cr1623   1.963       .  S
O1619      C1620   1.279       .  A
O1619     Cr1623   2.049       .  S
C1620      C1770   1.497       .  S
Cr1621     O1624   1.761       .  S
Cr1622     O1624   1.770       .  S
Cr1623     O1624   1.770       .  S
O1625      C1633   1.265       .  A
O1626      C1627   1.256       .  A
O1626     Cr1643   1.963       .  S
C1627      O1628   1.268       .  A
C1627      C1885   1.470       .  S
O1628     Cr1644   2.020       .  S
O1629      C1630   1.242       .  A
O1629     Cr1644   1.928       .  S
C1630      O1631   1.275       .  A
C1630      C1801   1.485       .  S
O1631     Cr1645   2.071       .  S
O1632      C1633   1.261       .  A
C1633      C1742   1.491       .  S
O1634      C1642   1.263   1_545  A
O1635      C1636   1.270       .  A
O1635     Cr1643   2.016       .  S
C1636      O1637   1.256       .  A
C1636      C1815   1.465       .  S
O1637     Cr1644   1.956       .  S
O1638      C1639   1.277       .  A
O1638     Cr1644   2.048       .  S
C1639      O1640   1.259       .  A
C1639      C1756   1.501       .  S
O1640     Cr1645   1.963       .  S
O1641      C1642   1.280       .  A
C1642      C1966   1.497       .  S
Cr1643     O1646   1.755       .  S
Cr1644     O1646   1.759       .  S
Cr1645     O1646   1.768       .  S
O1647      C1655   1.264       .  A
O1647     Cr1665   2.009       .  S
O1648      C1649   1.256       .  A
O1648     Cr1665   1.961       .  S
C1649      O1650   1.265       .  A
C1649      C1787   1.458       .  S
O1650     Cr1666   2.004       .  S
O1651      C1652   1.248       .  A
O1651     Cr1666   1.956       .  S
C1652      O1653   1.271       .  A
C1652      C1997   1.480       .  S
O1653     Cr1667   2.045       .  S
O1654      C1655   1.261       .  A
O1654     Cr1667   1.985       .  S
C1655      C1759   1.490       .  S
O1656      C1664   1.261       .  A
O1656     Cr1665   1.963       .  S
O1657      C1658   1.268       .  A
O1657     Cr1665   2.007       .  S
C1658      O1659   1.262       .  A
C1658      C2008   1.484       .  S
O1659     Cr1666   1.981       .  S
O1660      C1661   1.274       .  A
O1660     Cr1666   2.037       .  S
C1661      O1662   1.261       .  A
C1661      C1728   1.499       .  S
O1662     Cr1667   1.963       .  S
O1663      C1664   1.276       .  A
O1663     Cr1667   2.046       .  S
C1664      C1899   1.496       .  S
Cr1665     O1668   1.760       .  S
Cr1666     O1668   1.770       .  S
Cr1667     O1668   1.771       .  S
O1669      C1677   1.263       .  A
O1670      C1671   1.257       .  A
O1670     Cr1687   1.956       .  S
C1671      O1672   1.265       .  A
C1671      C1983   1.463       .  S
O1672     Cr1688   2.008       .  S
O1673      C1674   1.248       .  A
O1673     Cr1688   1.939       .  S
C1674      O1675   1.273       .  A
C1674      C1941   1.497       .  S
O1675     Cr1689   2.054       .  S
O1676      C1677   1.260       .  A
C1677      C1731   1.490       .  S
O1678      C1686   1.262       .  A
O1679      C1680   1.267       .  A
O1679     Cr1687   2.015       .  S
C1680      O1681   1.258       .  A
C1680      C1927   1.474       .  S
O1681     Cr1688   1.975       .  S
O1682      C1683   1.270       .  A
O1682     Cr1688   2.018       .  S
C1683      O1684   1.264       .  A
C1683      C1717   1.493       .  S
O1684     Cr1689   1.982       .  S
O1685      C1686   1.278       .  A
C1686      C1826   1.497       .  S
Cr1687     O1690   1.762       .  S
Cr1688     O1690   1.763       .  S
Cr1689     O1690   1.771       .  S
O1691      C1699   1.258       .  A
O1691     Cr1709   1.984       .  S
O1692      C1693   1.265       .  A
O1692     Cr1709   1.986       .  S
C1693      O1694   1.264       .  A
C1693      C1952   1.461       .  S
O1694     Cr1710   1.984       .  S
O1695      C1696   1.248       .  A
O1695     Cr1710   1.965       .  S
C1696      O1697   1.264       .  A
C1696      C1868   1.487       .  S
O1697     Cr1711   2.034       .  S
O1698      C1699   1.261       .  A
O1698     Cr1711   1.996       .  S
C1699      C1714   1.498       .  S
O1700      C1708   1.266       .  A
O1700     Cr1709   2.001       .  S
O1701      C1702   1.263       .  A
O1701     Cr1709   1.993       .  S
C1702      O1703   1.252       .  A
C1702      C1857   1.486       .  S
O1703     Cr1710   1.969       .  S
O1704      C1705   1.269       .  A
O1704     Cr1710   1.985       .  S
C1705      O1706   1.273       .  A
C1705      C1745   1.481   1_554  S
O1706     Cr1711   2.013       .  S
O1707      C1708   1.267       .  A
O1707     Cr1711   1.996       .  S
C1708      C1773   1.479       .  S
Cr1709     O1712   1.777       .  S
Cr1710     O1712   1.778       .  S
Cr1711     O1712   1.777       .  S
C1713      C1714   1.410       .  A
C1713      C1718   1.411       .  A
C1713      H1720   1.083       .  S
C1714      C1715   1.415       .  A
C1715      C1716   1.405       .  A
C1715      N1722   1.433       .  S
C1716      C1717   1.406       .  A
C1716      H1721   1.084       .  S
C1717      C1718   1.414       .  A
C1718      N1719   1.438       .  S
N1719      H1723   1.046       .  S
N1719      H1724   1.046       .  S
N1722      H1725   1.046       .  S
N1722      H1726   1.046       .  S
C1727      C1728   1.412       .  A
C1727      C1732   1.400       .  A
C1727      H1734   1.083       .  S
C1728      C1729   1.419       .  A
C1729      C1730   1.403       .  A
C1729      N1736   1.432       .  S
C1730      C1731   1.408       .  A
C1730      H1735   1.084       .  S
C1731      C1732   1.414       .  A
C1732      N1733   1.433       .  S
N1733      H1737   1.044       .  S
N1733      H1738   1.046       .  S
N1736      H1739   1.044       .  S
N1736      H1740   1.045       .  S
C1741      C1742   1.406       .  A
C1741      C1746   1.405       .  A
C1741      H1748   1.083       .  S
C1742      C1743   1.416       .  A
C1743      C1744   1.406       .  A
C1743      N1750   1.432       .  S
C1744      C1745   1.402       .  A
C1744      H1749   1.084   1_556  S
C1745      C1746   1.412       .  A
C1746      N1747   1.438       .  S
N1747      H1751   1.046       .  S
N1747      H1752   1.045       .  S
C1755      C1756   1.407       .  A
C1755      C1760   1.410       .  A
C1755      H1762   1.083       .  S
C1756      C1757   1.420       .  A
C1757      C1758   1.405       .  A
C1757      N1764   1.433       .  S
C1758      C1759   1.401       .  A
C1758      H1763   1.084       .  S
C1759      C1760   1.414       .  A
C1760      N1761   1.432       .  S
N1761      H1765   1.046       .  S
N1761      H1766   1.045       .  S
N1764      H1767   1.046       .  S
N1764      H1768   1.046       .  S
C1769      C1770   1.409       .  A
C1769      C1774   1.396   1_556  A
C1769      H1776   1.084       .  S
C1770      C1771   1.418   1_556  A
C1771      C1772   1.417       .  A
C1771      N1778   1.436       .  S
C1772      C1773   1.405       .  A
C1772      H1777   1.083       .  S
C1773      C1774   1.408       .  A
C1774      N1775   1.433       .  S
N1775      H1779   1.045       .  S
N1775      H1780   1.045       .  S
N1778      H1781   1.045       .  S
N1778      H1782   1.045       .  S
C1783      C1784   1.401       .  A
C1783      C1788   1.399       .  A
C1783      H1790   1.084       .  S
C1784      C1785   1.407       .  A
C1785      C1786   1.398       .  A
C1785      N1792   1.433       .  S
C1786      C1787   1.402       .  A
C1786      H1791   1.084       .  S
C1787      C1788   1.408       .  A
C1788      N1789   1.439       .  S
N1789      H1793   1.046       .  S
N1789      H1794   1.046       .  S
N1792      H1795   1.046       .  S
N1792      H1796   1.046       .  S
C1797      C1798   1.413       .  A
C1797      C1802   1.417       .  A
C1797      H1804   1.083       .  S
C1798      C1799   1.403       .  A
C1799      C1800   1.396       .  A
C1799      N1806   1.439       .  S
C1800      C1801   1.410       .  A
C1800      H1805   1.084       .  S
C1801      C1802   1.407       .  A
C1802      N1803   1.436       .  S
N1803      H1807   1.046       .  S
N1803      H1808   1.045       .  S
N1806      H1809   1.045       .  S
N1806      H1810   1.046       .  S
C1811      C1812   1.416       .  A
C1811      C1816   1.392       .  A
C1811      H1818   1.083       .  S
C1812      C1813   1.411   1_655  A
C1814      C1815   1.408       .  A
C1814      H1819   1.084       .  S
C1816      N1817   1.433       .  S
N1817      H1821   1.045       .  S
N1817      H1822   1.046       .  S
N1820      H1824   1.045       .  S
C1825      C1826   1.407       .  A
C1825      C1830   1.400       .  A
C1825      H1832   1.084       .  S
C1826      C1827   1.413       .  A
C1827      C1828   1.415       .  A
C1827      N1834   1.431       .  S
C1828      C1829   1.407       .  A
C1828      H1833   1.084       .  S
C1829      C1830   1.417       .  A
N1831      H1835   1.045       .  S
N1831      H1836   1.043       .  S
N1834      H1837   1.046       .  S
N1834      H1838   1.045       .  S
C1839      C1840   1.404       .  A
C1839      C1844   1.403       .  A
C1839      H1846   1.084       .  S
C1840      C1841   1.421       .  A
C1841      C1842   1.407       .  A
C1841      N1848   1.432       .  S
C1842      C1843   1.406       .  A
C1842      H1847   1.083       .  S
C1843      C1844   1.419       .  A
C1844      N1845   1.433       .  S
N1845      H1849   1.046       .  S
N1845      H1850   1.046       .  S
N1848      H1851   1.045       .  S
N1848      H1852   1.045       .  S
C1853      C1854   1.397       .  A
C1853      C1858   1.405       .  A
C1853      H1860   1.084       .  S
C1854      C1855   1.425       .  A
C1855      C1856   1.396       .  A
C1855      N1862   1.434       .  S
C1856      C1857   1.398       .  A
C1856      H1861   1.084       .  S
C1857      C1858   1.421       .  A
C1858      N1859   1.433       .  S
N1859      H1863   1.046       .  S
N1859      H1864   1.046       .  S
N1862      H1865   1.045       .  S
N1862      H1866   1.045       .  S
C1867      C1872   1.410       .  A
C1867      H1874   1.084       .  S
C1868      C1869   1.418       .  A
C1869      C1870   1.395       .  A
C1869      N1876   1.433       .  S
C1870      H1875   1.085       .  S
C1871      C1872   1.418       .  A
C1872      N1873   1.438       .  S
N1873      H1877   1.046       .  S
N1873      H1878   1.045       .  S
N1876      H1879   1.046       .  S
N1876      H1880   1.046       .  S
C1881      C1882   1.403       .  A
C1881      C1886   1.394   1_554  A
C1881      H1888   1.085       .  S
C1882      C1883   1.409       .  A
C1883      C1884   1.405       .  A
C1883      N1890   1.438       .  S
C1884      C1885   1.406   1_554  A
C1884      H1889   1.084   1_554  S
C1885      C1886   1.411       .  A
C1886      N1887   1.433       .  S
N1887      H1891   1.046       .  S
N1887      H1892   1.044       .  S
N1890      H1893   1.045       .  S
N1890      H1894   1.046       .  S
C1895      C1896   1.410       .  A
C1895      C1900   1.416       .  A
C1895      H1902   1.083       .  S
C1896      C1897   1.413       .  A
C1897      C1898   1.401       .  A
C1897      N1904   1.433       .  S
C1898      C1899   1.406       .  A
C1898      H1903   1.084       .  S
C1899      C1900   1.416       .  A
C1900      N1901   1.437       .  S
N1901      H1905   1.046       .  S
N1901      H1906   1.046       .  S
N1904      H1907   1.046       .  S
N1904      H1908   1.045       .  S
C1909      C1910   1.407       .  A
C1909      C1914   1.409       .  A
C1909      H1916   1.084       .  S
C1910      C1911   1.425       .  A
C1911      C1912   1.403       .  A
C1911      N1918   1.433       .  S
C1912      C1913   1.403       .  A
C1912      H1917   1.084       .  S
C1913      C1914   1.415       .  A
C1914      N1915   1.432       .  S
N1915      H1919   1.045       .  S
N1915      H1920   1.046       .  S
N1918      H1921   1.046       .  S
C1923      C1924   1.408       .  A
C1923      H1930   1.084       .  S
C1925      C1926   1.404       .  A
C1925      N1932   1.438       .  S
C1926      C1927   1.406       .  A
C1926      H1931   1.083       .  S
C1927      C1928   1.402       .  A
N1929      H1933   1.046       .  S
N1932      H1935   1.045       .  S
N1932      H1936   1.046       .  S
C1937      C1938   1.406       .  A
C1937      C1942   1.406       .  A
C1937      H1944   1.084       .  S
C1938      C1939   1.399       .  A
C1939      C1940   1.400       .  A
C1939      N1946   1.438       .  S
C1940      C1941   1.417       .  A
C1940      H1945   1.083       .  S
C1941      C1942   1.416       .  A
C1942      N1943   1.431       .  S
N1943      H1947   1.045       .  S
N1943      H1948   1.045       .  S
N1946      H1949   1.046       .  S
N1946      H1950   1.045       .  S
C1951      C1952   1.399       .  A
C1951      C1956   1.405       .  A
C1951      H1958   1.084       .  S
C1952      C1953   1.408       .  A
C1953      C1954   1.396       .  A
C1953      N1960   1.439       .  S
C1954      C1955   1.403       .  A
C1954      H1959   1.084       .  S
C1955      C1956   1.416       .  A
C1956      N1957   1.437       .  S
N1957      H1961   1.046       .  S
N1957      H1962   1.045       .  S
N1960      H1963   1.046       .  S
N1960      H1964   1.046       .  S
C1965      C1966   1.407       .  A
C1965      C1970   1.414       .  A
C1965      H1972   1.084       .  S
C1966      C1967   1.417       .  A
C1967      C1968   1.405       .  A
C1967      N1974   1.439       .  S
C1968      C1969   1.400       .  A
C1969      C1970   1.420       .  A
C1970      N1971   1.438       .  S
N1971      H1975   1.045       .  S
N1971      H1976   1.044       .  S
N1974      H1977   1.046       .  S
N1974      H1978   1.045       .  S
C1979      C1980   1.404       .  A
C1979      C1984   1.405       .  A
C1979      H1986   1.084       .  S
C1980      C1981   1.408       .  A
C1981      C1982   1.393       .  A
C1981      N1988   1.439       .  S
C1982      C1983   1.400       .  A
C1982      H1987   1.084       .  S
C1983      C1984   1.411       .  A
C1984      N1985   1.438       .  S
N1985      H1989   1.046       .  S
N1985      H1990   1.045       .  S
N1988      H1991   1.046       .  S
N1988      H1992   1.046       .  S
C1993      C1994   1.408       .  A
C1993      H2000   1.081       .  S
C1994      C1995   1.409       .  A
C1995      N2002   1.437       .  S
C1996      C1997   1.411       .  A
C1996      H2001   1.084       .  S
C1997      C1998   1.406       .  A
C1998      N1999   1.438       .  S
N1999      H2004   1.045       .  S
N2002      H2005   1.045       .  S
C2007      C2008   1.394       .  A
C2007      C2012   1.396       .  A
C2007      H2014   1.085       .  S
C2008      C2009   1.418       .  A
C2009      C2010   1.419       .  A
C2009      N2016   1.437       .  S
C2010      C2011   1.407       .  A
C2010      H2015   1.083       .  S
C2011      C2012   1.422       .  A
C2012      N2013   1.434       .  S
N2013      H2017   1.046       .  S
N2013      H2018   1.046       .  S
N2016      H2019   1.045       .  S
N2016      H2020   1.046       .  S
C2021      C2022   1.408       .  A
C2021      C2026   1.402       .  A
C2021      H2028   1.083       .  S
C2022      C2023   1.420       .  A
C2023      C2024   1.413       .  A
C2023      N2030   1.437       .  S
C2024      C2025   1.405       .  A
C2024      H2029   1.084       .  S
C2025      C2026   1.409       .  A
N2027      H2031   1.046       .  S
N2027      H2032   1.046       .  S
N2030      H2033   1.046       .  S
N2030      H2034   1.046       .  S
C2035      C2036   1.409       .  A
C2035      C2040   1.402       .  A
C2035      H2042   1.084       .  S
C2036      C2037   1.416       .  A
C2037      C2038   1.411       .  A
C2037      N2044   1.437       .  S
C2038      C2039   1.407       .  A
C2038      H2043   1.083       .  S
C2039      C2040   1.411       .  A
C2040      N2041   1.433       .  S
N2041      H2045   1.046       .  S
N2041      H2046   1.046       .  S
N2044      H2047   1.046       .  S
N2044      H2048   1.046       .  S
