geometry optimzed in LAMMPS
_audit_creation_date              2020-12-01 
_audit_creation_method            'lammps2cif' 
_symmetry_space_group_name_H-M    'P1' 
_symmetry_Int_Tables_number       1 
_symmetry_cell_setting            triclinic 
loop_ 
_symmetry_equiv_pos_as_xyz 
  x,y,z 
_cell_length_a                    45.37381174 
_cell_length_b                    45.38125772548272 
_cell_length_c                    45.63455313298404 
_cell_angle_alpha                 90.22557956822631 
_cell_angle_beta                  89.77116212640611 
_cell_angle_gamma                 120.75536478133846 
loop_ 
_atom_site_label 
_atom_site_type_symbol 
_atom_site_fract_x 
_atom_site_fract_y 
_atom_site_fract_z 
_atom_site_charge 
Fe1        Fe  0.56832081  0.12617799  0.19537477     1.65800
Fe2        Fe  0.61883567  0.19800176  0.23650465     1.73200
Fe3        Fe  0.65470362  0.15581690  0.20352875     1.54400
O4          O  0.62886337  0.10355108  0.21334363    -0.80100
O5          O  0.65968168  0.23429312  0.21250544    -0.78400
O6          O  0.57333626  0.08471398  0.20665678    -0.82600
O7          O  0.58818755  0.12934000  0.15353505    -0.77500
O8          O  0.67180007  0.16419325  0.24607048    -0.79200
O9          O  0.58700763  0.20766649  0.21142903    -0.82000
C10         C  0.61772635  0.13776409  0.14372489     0.98800
C11         C  0.59751082  0.07983214  0.21375585     1.06200
O12         O  0.61391547  0.16000941  0.21172514    -1.11000
O13         O  0.57841862  0.16546689  0.26262983    -0.73400
O14         O  0.54349967  0.11969616  0.23528557    -0.76900
O15         O  0.64357591  0.14694585  0.15984978    -0.77600
C16         C  0.55096323  0.13700357  0.25888201     0.97700
O17         O  0.55573177  0.16246476  0.18273354    -0.75500
O18         O  0.65086443  0.19434564  0.26630950    -0.80700
C19         C  0.68345941  0.23454971  0.19764592     1.00300
C20         C  0.66877689  0.18030300  0.26734620     1.06200
O21         O  0.68546568  0.20790277  0.19311545    -0.76400
C22         C  0.56395442  0.19197969  0.19234368     1.04500
Fe23       Fe  0.77513868  0.25960227  0.45245204     1.65800
Fe24       Fe  0.75252860  0.30899247  0.41275655     1.73200
Fe25       Fe  0.83257931  0.34611758  0.44304264     1.54400
O26         O  0.83106095  0.33585106  0.48682364    -0.80100
O27         O  0.78769174  0.34155024  0.38222531    -0.78400
O28         O  0.79326523  0.28017380  0.49384813    -0.82600
O29         O  0.82167929  0.26506945  0.43996169    -0.77500
O30         O  0.81174955  0.37695735  0.45364152    -0.79200
O31         O  0.74383569  0.26873037  0.38635789    -0.82000
C32         C  0.85112432  0.28938172  0.43258925     0.98800
C33         C  0.81458347  0.31006618  0.50324516     1.06200
O34         O  0.78672159  0.30486241  0.43615497    -1.11000
O35         O  0.71138164  0.27679361  0.43879926    -0.73400
O36         O  0.72614329  0.24625868  0.46658755    -0.76900
O37         O  0.85901661  0.32063307  0.43292094    -0.77600
C38         C  0.70443585  0.25397980  0.45784175     0.97700
O39         O  0.75549464  0.23446605  0.41282120    -0.75500
O40         O  0.75781800  0.34958411  0.43711985    -0.80700
C41         C  0.81999686  0.35933694  0.37993035     1.00300
C42         C  0.78256160  0.37432524  0.45048962     1.06200
O43         O  0.84015223  0.36208942  0.40016660    -0.76400
C44         C  0.74503031  0.24164893  0.38963208     1.04500
Fe45       Fe  0.71341481  0.53875263  0.45418310     1.65800
Fe46       Fe  0.66305387  0.46685126  0.41304411     1.73200
Fe47       Fe  0.62700597  0.50892498  0.44593885     1.54400
O48         O  0.63825590  0.51816954  0.48957374    -0.80100
O49         O  0.63149927  0.47085651  0.38295847    -0.78400
O50         O  0.69349946  0.53522558  0.49601643    -0.82600
O51         O  0.70817520  0.58017048  0.44320405    -0.77500
O52         O  0.59640435  0.45692719  0.45664590    -0.79200
O53         O  0.70385119  0.49934953  0.38720600    -0.82000
C54         C  0.68400698  0.58493442  0.43580617     0.98800
C55         C  0.66401489  0.52708646  0.50574940     1.06200
O56         O  0.66786324  0.50482854  0.43779258    -1.11000
O57         O  0.69442402  0.45693542  0.43847231    -0.73400
O58         O  0.72629723  0.50258631  0.46654616    -0.76900
O59         O  0.65270366  0.56109748  0.43586342    -0.77600
C60         C  0.71775789  0.47285454  0.45728395     0.97700
O61         O  0.73823765  0.54560504  0.41426199    -0.75500
O62         O  0.62184463  0.43047996  0.43671548    -0.80700
C63         C  0.61322027  0.48450447  0.38202219     1.00300
C64         C  0.59824823  0.43023856  0.45184989     1.06200
O65         O  0.60974758  0.50016548  0.40343128    -0.76400
C66         C  0.73105794  0.52806758  0.39082551     1.04500
Fe67       Fe  0.50596913  0.40483581  0.19728720     1.65800
Fe68       Fe  0.52864498  0.35539865  0.23685067     1.73200
Fe69       Fe  0.44857755  0.31828001  0.20652206     1.54400
O70         O  0.42208759  0.34367907  0.21686067    -0.80100
O71         O  0.52318992  0.31465338  0.21262470    -0.78400
O72         O  0.45927468  0.39921183  0.20953599    -0.82600
O73         O  0.48818095  0.38435279  0.15579826    -0.77500
O74         O  0.44106021  0.30210436  0.24935599    -0.79200
O75         O  0.56971793  0.38737817  0.21067120    -0.82000
C76         C  0.46675081  0.35451493  0.14635459     0.98800
C77         C  0.42988668  0.37490664  0.21705082     1.06200
O78         O  0.49442684  0.35954515  0.21348978    -1.11000
O79         O  0.53762488  0.39583440  0.26315336    -0.73400
O80         O  0.52529004  0.42982006  0.23701877    -0.76900
O81         O  0.45006244  0.32874254  0.16275759    -0.77600
C82         C  0.53613308  0.42277331  0.26004737     0.97700
O83         O  0.55514817  0.41847097  0.18343304    -0.75500
O84         O  0.49351023  0.32307726  0.26748736    -0.80700
C85         C  0.49856034  0.29004774  0.19904264     1.00300
C86         C  0.46120913  0.30510119  0.26969417     1.06200
O87         O  0.46944013  0.28751655  0.19570274    -0.76400
C88         C  0.57676828  0.41051226  0.19193072     1.04500
Fe89       Fe  0.43361764  0.19561707  0.45356935     1.65800
Fe90       Fe  0.50590709  0.21796644  0.41327533     1.73200
Fe91       Fe  0.46111276  0.13806110  0.44370502     1.54400
O92         O  0.45238811  0.13929104  0.48765535    -0.80100
O93         O  0.50322860  0.18276762  0.38301989    -0.78400
O94         O  0.43405848  0.17602307  0.49472882    -0.82600
O95         O  0.39172833  0.14987442  0.43982773    -0.77500
O96         O  0.51323672  0.15895051  0.45397911    -0.79200
O97         O  0.47445968  0.22585349  0.38657669    -0.82000
C98         C  0.38590571  0.12036563  0.43264103     0.98800
C99         C  0.44245035  0.15498103  0.50413373     1.06200
O100        O  0.46687719  0.18390985  0.43695393    -1.11000
O101        O  0.51502110  0.25930289  0.43885247    -0.73400
O102        O  0.47064017  0.24369453  0.46879271    -0.76900
O103        O  0.40871758  0.11200989  0.43374805    -0.77600
C104        C  0.49990322  0.26579597  0.45896243     0.97700
O105        O  0.42985000  0.21687826  0.41438904    -0.75500
O106        O  0.54091816  0.21318235  0.43807620    -0.80700
C107        C  0.48740101  0.15047219  0.38056430     1.00300
C108        C  0.54032721  0.18834766  0.45123963     1.06200
O109        O  0.46907339  0.13041491  0.40070815    -0.76400
C110        C  0.44698913  0.22615935  0.39064274     1.04500
Fe111      Fe  0.84774574  0.46917504  0.19621181     1.65800
Fe112      Fe  0.77565946  0.44703363  0.23668848     1.73200
Fe113      Fe  0.82028246  0.52674753  0.20593961     1.54400
O114        O  0.87283531  0.55291372  0.21539598    -0.80100
O115        O  0.74051680  0.45150651  0.21181426    -0.78400
O116        O  0.88967104  0.51485561  0.20996585    -0.82600
O117        O  0.84733367  0.48879170  0.15503328    -0.77500
O118        O  0.81292545  0.53471484  0.24900378    -0.79200
O119        O  0.76659914  0.40551304  0.21136162    -0.82000
C120        C  0.83853907  0.50948877  0.14551630     0.98800
C121        C  0.89559179  0.54449580  0.21676935     1.06200
O122        O  0.81456760  0.48095900  0.21284017    -1.11000
O123        O  0.80726422  0.43948876  0.26346357    -0.73400
O124        O  0.85146341  0.44783249  0.23538470    -0.76900
O125        O  0.82838231  0.52504939  0.16192114    -0.77600
C126        C  0.83455019  0.43887425  0.25925701     0.97700
O127        O  0.81063000  0.42118534  0.18098837    -0.75500
O128        O  0.77834508  0.48245676  0.26671242    -0.80700
C129        C  0.74098586  0.47637155  0.19882185     1.00300
C130        C  0.79447039  0.51476454  0.26915375     1.06200
O131        O  0.76801920  0.50582716  0.19614927    -0.76400
C132        C  0.78154106  0.39903352  0.19107686     1.04500
Fe133      Fe  0.43470244  0.26038706  0.95412635     1.65800
Fe134      Fe  0.50657775  0.31062108  0.91294328     1.73200
Fe135      Fe  0.46466177  0.34680459  0.94587321     1.54400
O136        O  0.41235687  0.32111502  0.93611277    -0.80100
O137        O  0.54300188  0.35143882  0.93687494    -0.78400
O138        O  0.39336088  0.26555672  0.94274782    -0.82600
O139        O  0.43786007  0.28033050  0.99591699    -0.77500
O140        O  0.47302135  0.36377975  0.90330763    -0.79200
O141        O  0.51608438  0.27873445  0.93808260    -0.82000
C142        C  0.44644391  0.30991090  0.00570452     0.98800
C143        C  0.38856961  0.28978841  0.93566401     1.06200
O144        O  0.46866164  0.30590236  0.93772932    -1.11000
O145        O  0.47392441  0.27021436  0.88687120    -0.73400
O146        O  0.42815303  0.23545802  0.91428441    -0.76900
O147        O  0.45582260  0.33578588  0.98956881    -0.77600
C148        C  0.44542219  0.24281945  0.89067491     0.97700
O149        O  0.47088131  0.24767921  0.96685568    -0.75500
O150        O  0.50303072  0.34266663  0.88308895    -0.80700
C151        C  0.54338108  0.37530199  0.95168696     1.00300
C152        C  0.48905704  0.36064181  0.88203131     1.06200
O153        O  0.51680036  0.37743633  0.95621419    -0.76400
C154        C  0.50035879  0.25576408  0.95722461     1.04500
Fe155      Fe  0.56822957  0.46694683  0.69693271     1.65800
Fe156      Fe  0.61763126  0.44435645  0.73663929     1.73200
Fe157      Fe  0.65473092  0.52443437  0.70643358     1.54400
O158        O  0.64449300  0.52293970  0.66263657    -0.80100
O159        O  0.65016900  0.47948591  0.76719435    -0.78400
O160        O  0.58885730  0.48499904  0.65553559    -0.82600
O161        O  0.57366137  0.51348998  0.70934372    -0.77500
O162        O  0.68562549  0.50366607  0.69582863    -0.79200
O163        O  0.57732334  0.43561965  0.76300534    -0.82000
C164        C  0.59792536  0.54291135  0.71681649     0.98800
C165        C  0.61875603  0.50637629  0.64617548     1.06200
O166        O  0.61348876  0.47855086  0.71326580    -1.11000
O167        O  0.58545851  0.40320860  0.71059553    -0.73400
O168        O  0.55482473  0.41791316  0.68288303    -0.76900
O169        O  0.62918812  0.55081741  0.71657976    -0.77600
C170        C  0.56256575  0.39622105  0.69162154     0.97700
O171        O  0.54310130  0.44737985  0.73657174    -0.75500
O172        O  0.65826197  0.44971159  0.71228597    -0.80700
C173        C  0.66796003  0.51178102  0.76952716     1.00300
C174        C  0.68301220  0.47448729  0.69894946     1.06200
O175        O  0.67068989  0.53196632  0.74932512    -0.76400
C176        C  0.55026232  0.43686515  0.75974148     1.04500
Fe177      Fe  0.50379115  0.12537943  0.69606995     1.65800
Fe178      Fe  0.52605823  0.19752656  0.73648417     1.73200
Fe179      Fe  0.44619944  0.15280416  0.70600648     1.54400
O180        O  0.44755820  0.14436053  0.66202392    -0.80100
O181        O  0.49079286  0.19497374  0.76661218    -0.78400
O182        O  0.48404785  0.12572595  0.65495318    -0.82600
O183        O  0.45812928  0.08347194  0.70991385    -0.77500
O184        O  0.46710723  0.20500194  0.69596325    -0.79200
O185        O  0.53367982  0.16596095  0.76324062    -0.82000
C186        C  0.42855715  0.07758428  0.71696625     0.98800
C187        C  0.46313232  0.13428796  0.64554712     1.06200
O188        O  0.49204248  0.15856660  0.71274332    -1.11000
O189        O  0.56749367  0.20653565  0.71107468    -0.73400
O190        O  0.55178677  0.16246956  0.68075487    -0.76900
O191        O  0.42013570  0.10034236  0.71574052    -0.77600
C192        C  0.57395725  0.19157408  0.69080508     0.97700
O193        O  0.52520681  0.12170004  0.73518971    -0.75500
O194        O  0.52146262  0.23257721  0.71158678    -0.80700
C195        C  0.45849413  0.17895766  0.76912674     1.00300
C196        C  0.49657080  0.23204839  0.69857722     1.06200
O197        O  0.43845437  0.16046412  0.74904584    -0.76400
C198        C  0.53422506  0.13863995  0.75904017     1.04500
Fe199      Fe  0.71304340  0.19752212  0.95217972     1.65800
Fe200      Fe  0.66365559  0.22028097  0.91265095     1.73200
Fe201      Fe  0.62646956  0.14021916  0.94295695     1.54400
O202        O  0.65184764  0.11365079  0.93274571    -0.80100
O203        O  0.62310568  0.21503991  0.93705516    -0.78400
O204        O  0.70742973  0.15090109  0.93976313    -0.82600
O205        O  0.69253439  0.17957167  0.99365742    -0.77500
O206        O  0.61042706  0.13267799  0.90010916    -0.79200
O207        O  0.69593189  0.26140176  0.93867094    -0.82000
C208        C  0.66264393  0.15830431  0.00312294     0.98800
C209        C  0.68309201  0.12147673  0.93239223     1.06200
O210        O  0.66776465  0.18603742  0.93599616    -1.11000
O211        O  0.70389331  0.22899155  0.88620085    -0.73400
O212        O  0.73805887  0.21700893  0.91246770    -0.76900
O213        O  0.63682933  0.14176793  0.98673618    -0.77600
C214        C  0.73091721  0.22766008  0.88936777     0.97700
O215        O  0.72665116  0.24661945  0.96619110    -0.75500
O216        O  0.63106040  0.18514169  0.88214266    -0.80700
C217        C  0.59837143  0.19034182  0.95046945     1.00300
C218        C  0.61323574  0.15284313  0.87986319     1.06200
O219        O  0.59570691  0.16114234  0.95363332    -0.76400
C220        C  0.71892692  0.26835280  0.95753364     1.04500
Fe221      Fe  0.84708562  0.40495841  0.69505741     1.65800
Fe222      Fe  0.77528121  0.35481464  0.73638481     1.73200
Fe223      Fe  0.81719026  0.31858273  0.70353459     1.54400
O224        O  0.82629696  0.32963537  0.65986466    -0.80100
O225        O  0.77907102  0.32309114  0.76642995    -0.78400
O226        O  0.84359018  0.38490340  0.65329270    -0.82600
O227        O  0.88848538  0.39975306  0.70616459    -0.77500
O228        O  0.76512774  0.28800257  0.69299192    -0.79200
O229        O  0.80796434  0.39549904  0.76222692    -0.82000
C230        C  0.89324397  0.37558831  0.71357127     0.98800
C231        C  0.83532892  0.35536619  0.64363070     1.06200
O232        O  0.81316789  0.35948764  0.71158229    -1.11000
O233        O  0.76553134  0.38637260  0.71105124    -0.73400
O234        O  0.81091345  0.41776550  0.68255485    -0.76900
O235        O  0.86940816  0.34428496  0.71349328    -0.77600
C236        C  0.78132976  0.40948457  0.69203928     0.97700
O237        O  0.85394263  0.42994191  0.73489034    -0.75500
O238        O  0.73881578  0.31371696  0.71267869    -0.80700
C239        C  0.79277711  0.30487019  0.76742863     1.00300
C240        C  0.73849118  0.28998205  0.69769574     1.06200
O241        O  0.80856526  0.30148381  0.74607916    -0.76400
C242        C  0.83660716  0.42275073  0.75844741     1.04500
Fe243      Fe  0.77815886  0.53933037  0.95309056     1.65800
Fe244      Fe  0.75607727  0.46725316  0.91265292     1.73200
Fe245      Fe  0.83577956  0.51189689  0.94346222     1.54400
O246        O  0.86195607  0.56444784  0.93399233    -0.80100
O247        O  0.76056259  0.43213658  0.93754191    -0.78400
O248        O  0.82387599  0.58125895  0.93941974    -0.82600
O249        O  0.79766767  0.53885767  0.99430678    -0.77500
O250        O  0.84380193  0.50453099  0.90041560    -0.79200
O251        O  0.71451799  0.45815236  0.93795783    -0.82000
C252        C  0.81837467  0.53008756  0.00385412     0.98800
C253        C  0.85352950  0.58719729  0.93263192     1.06200
O254        O  0.78998039  0.50616719  0.93650442    -1.11000
O255        O  0.74849388  0.49881709  0.88584969    -0.73400
O256        O  0.75690755  0.54307531  0.91386653    -0.76900
O257        O  0.83401293  0.51999778  0.98747122    -0.77600
C258        C  0.74790650  0.52611980  0.89001717     0.97700
O259        O  0.73012178  0.50223471  0.96824022    -0.75500
O260        O  0.79155139  0.46998467  0.88266121    -0.80700
C261        C  0.78540811  0.43260853  0.95057640     1.00300
C262        C  0.82386741  0.48610273  0.88024811     1.06200
O263        O  0.81486091  0.45964132  0.95327731    -0.76400
C264        C  0.70799619  0.47312260  0.95818603     1.04500
Fe265      Fe  0.23496914  0.45945908  0.52876474     1.65800
Fe266      Fe  0.28528693  0.53116781  0.57010258     1.73200
Fe267      Fe  0.32134378  0.48918243  0.53705851     1.54400
O268        O  0.29555468  0.43693863  0.54698988    -0.80100
O269        O  0.32636928  0.56758229  0.54638792    -0.78400
O270        O  0.24005905  0.41800281  0.53994646    -0.82600
O271        O  0.25493784  0.46286474  0.48695846    -0.77500
O272        O  0.33850116  0.49769648  0.57957457    -0.79200
O273        O  0.25373792  0.54103213  0.54483586    -0.82000
C274        C  0.28446689  0.47120471  0.47720255     0.98800
C275        C  0.26421374  0.41317298  0.54724884     1.06200
O276        O  0.28049890  0.49328773  0.54523582    -1.11000
O277        O  0.24462338  0.49856274  0.59597836    -0.73400
O278        O  0.21000470  0.45271354  0.56860141    -0.76900
O279        O  0.31024255  0.48021624  0.49337732    -0.77600
C280        C  0.21727338  0.47002296  0.59217434     0.97700
O281        O  0.22233169  0.49574817  0.51624746    -0.75500
O282        O  0.31700565  0.52722693  0.60005986    -0.80700
C283        C  0.35005168  0.56789170  0.53133736     1.00300
C284        C  0.33516830  0.51344997  0.60097550     1.06200
O285        O  0.35199120  0.54124891  0.52656386    -0.76400
C286        C  0.23064966  0.52531977  0.52578058     1.04500
Fe287      Fe  0.10041167  0.52869733  0.78689036     1.65800
Fe288      Fe  0.17259312  0.55093041  0.74648504     1.73200
Fe289      Fe  0.12778229  0.47105239  0.77699488     1.54400
O290        O  0.11909778  0.47228762  0.82094828    -0.80100
O291        O  0.16976564  0.51567285  0.71622592    -0.78400
O292        O  0.10085278  0.50908015  0.82804822    -0.82600
O293        O  0.05847878  0.48299143  0.77315006    -0.77500
O294        O  0.17991556  0.49190564  0.78722984    -0.79200
O295        O  0.14113491  0.55885749  0.71983507    -0.82000
C296        C  0.05261051  0.45347397  0.76593784     0.98800
C297        C  0.10919715  0.48799604  0.83744029     1.06200
O298        O  0.13360109  0.51692559  0.77023212    -1.11000
O299        O  0.18180746  0.59232101  0.77204861    -0.73400
O300        O  0.13750380  0.57676068  0.80207718    -0.76900
O301        O  0.07538091  0.44506108  0.76705110    -0.77600
C302        C  0.16673307  0.59885226  0.79217559     0.97700
O303        O  0.09662512  0.54998403  0.74773323    -0.75500
O304        O  0.20762197  0.54609853  0.77121976    -0.80700
C305        C  0.15390142  0.48337300  0.71381292     1.00300
C306        C  0.20702400  0.52127880  0.78441921     1.06200
O307        O  0.13566416  0.46335798  0.73400781    -0.76400
C308        C  0.11370489  0.55922398  0.72395699     1.04500
Fe309      Fe  0.37985245  0.87197967  0.78753052     1.65800
Fe310      Fe  0.32954504  0.80013468  0.74632583     1.73200
Fe311      Fe  0.29343687  0.84212812  0.77924120     1.54400
O312        O  0.30461032  0.85121061  0.82289697    -0.80100
O313        O  0.29787897  0.80404712  0.71629517    -0.78400
O314        O  0.35990004  0.86844932  0.82933799    -0.82600
O315        O  0.37463029  0.91338951  0.77651219    -0.77500
O316        O  0.26279919  0.79007621  0.78980987    -0.79200
O317        O  0.37027062  0.83271982  0.72046392    -0.82000
C318        C  0.35045794  0.91816564  0.76916406     0.98800
C319        C  0.33038397  0.86018774  0.83906990     1.06200
O320        O  0.33431483  0.83806595  0.77110637    -1.11000
O321        O  0.36102130  0.79028735  0.77167949    -0.73400
O322        O  0.39272045  0.83581263  0.79992973    -0.76900
O323        O  0.31914721  0.89434261  0.76928255    -0.77600
C324        C  0.38427897  0.80614492  0.79056423     0.97700
O325        O  0.40471085  0.87884357  0.74763772    -0.75500
O326        O  0.28841261  0.76372149  0.77003051    -0.80700
C327        C  0.27967060  0.81777193  0.71533043     1.00300
C328        C  0.26472514  0.76342091  0.78506900     1.06200
O329        O  0.27627898  0.83352172  0.73670929    -0.76400
C330        C  0.39750012  0.86140478  0.72414450     1.04500
Fe331      Fe  0.17231433  0.73791180  0.53066086     1.65800
Fe332      Fe  0.19503956  0.68856957  0.57028542     1.73200
Fe333      Fe  0.11500119  0.65134309  0.53990756     1.54400
O334        O  0.08843256  0.67671052  0.55013069    -0.80100
O335        O  0.18978703  0.64797350  0.54596251    -0.78400
O336        O  0.12564461  0.73227007  0.54296826    -0.82600
O337        O  0.15450183  0.71739137  0.48918250    -0.77500
O338        O  0.10742234  0.63523631  0.58276355    -0.79200
O339        O  0.23616842  0.72075375  0.54423016    -0.82000
C340        C  0.13321726  0.68751537  0.47972138     0.98800
C341        C  0.09624003  0.70794369  0.55040793     1.06200
O342        O  0.16081194  0.69264898  0.54688955    -1.11000
O343        O  0.20377724  0.72886795  0.59665942    -0.73400
O344        O  0.19169787  0.76294543  0.57037318    -0.76900
O345        O  0.11658169  0.66172750  0.49611784    -0.77600
C346        C  0.20239532  0.75585815  0.59347284     0.97700
O347        O  0.22144958  0.75154294  0.51674252    -0.75500
O348        O  0.15988022  0.65605582  0.60082175    -0.80700
C349        C  0.16514589  0.62328103  0.53246519     1.00300
C350        C  0.12757872  0.63813660  0.60305993     1.06200
O351        O  0.13595652  0.62062289  0.52921339    -0.76400
C352        C  0.24314910  0.74376266  0.52537753     1.04500
Fe353      Fe  0.44197493  0.59308499  0.78573924     1.65800
Fe354      Fe  0.41927297  0.64231233  0.74592382     1.73200
Fe355      Fe  0.49933320  0.67958831  0.77619722     1.54400
O356        O  0.49784020  0.66942502  0.81999994    -0.80100
O357        O  0.45440947  0.67493890  0.71541741    -0.78400
O358        O  0.46006735  0.61376080  0.82710424    -0.82600
O359        O  0.48852550  0.59857635  0.77325901    -0.77500
O360        O  0.47841385  0.71037747  0.78673182    -0.79200
O361        O  0.41075152  0.60208906  0.71955018    -0.82000
C362        C  0.51794019  0.62287400  0.76580512     0.98800
C363        C  0.48135070  0.64368083  0.83646131     1.06200
O364        O  0.45349851  0.63828843  0.76935859    -1.11000
O365        O  0.37810015  0.61000989  0.77190461    -0.73400
O366        O  0.39296836  0.57968932  0.79985970    -0.76900
O367        O  0.52581549  0.65412438  0.76609623    -0.77600
C368        C  0.37119590  0.58726685  0.79100744     0.97700
O369        O  0.42234588  0.56786386  0.74615094    -0.75500
O370        O  0.42443878  0.68285846  0.77029312    -0.80700
C371        C  0.48670909  0.69272905  0.71309765     1.00300
C372        C  0.44918121  0.70766244  0.78361509     1.06200
O373        O  0.50688749  0.69548781  0.73331046    -0.76400
C374        C  0.41192912  0.57500758  0.72291387     1.04500
Fe375      Fe  0.51405112  0.80259902  0.52954624     1.65800
Fe376      Fe  0.44200496  0.78057428  0.57006027     1.73200
Fe377      Fe  0.48668280  0.86026052  0.53920875     1.54400
O378        O  0.53919739  0.88636077  0.54880781    -0.80100
O379        O  0.40687020  0.78517472  0.54528509    -0.78400
O380        O  0.55600555  0.84829661  0.54322356    -0.82600
O381        O  0.51362294  0.82212587  0.48834381    -0.77500
O382        O  0.47917669  0.86826284  0.58222001    -0.79200
O383        O  0.43279191  0.73903338  0.54469258    -0.82000
C384        C  0.50500831  0.84295500  0.47882337     0.98800
C385        C  0.56193966  0.87791789  0.55011790     1.06200
O386        O  0.48090963  0.81444750  0.54616531    -1.11000
O387        O  0.47356349  0.77287447  0.59677117    -0.73400
O388        O  0.51782569  0.78134878  0.56872345    -0.76900
O389        O  0.49494920  0.85860583  0.49521857    -0.77600
C390        C  0.50087934  0.77231502  0.59256963     0.97700
O391        O  0.47689984  0.75456667  0.51443202    -0.75500
O392        O  0.44487731  0.81603965  0.60011603    -0.80700
C393        C  0.40738638  0.80997655  0.53213125     1.00300
C394        C  0.46088018  0.84835336  0.60245190     1.06200
O395        O  0.43446201  0.83936730  0.52928914    -0.76400
C396        C  0.44776254  0.73247696  0.52448497     1.04500
Fe397      Fe  0.23460818  0.79996655  0.03021263     1.65800
Fe398      Fe  0.28397745  0.77743614  0.07003864     1.73200
Fe399      Fe  0.32109758  0.85747676  0.03973894     1.54400
O400        O  0.31079957  0.85607490  0.99596665    -0.80100
O401        O  0.31642779  0.81257322  0.10061938    -0.78400
O402        O  0.25524434  0.81791401  0.98881561    -0.82600
O403        O  0.24004702  0.84653752  0.04254570    -0.77500
O404        O  0.35190008  0.83664312  0.02898713    -0.79200
O405        O  0.24360865  0.76868882  0.09633484    -0.82000
C406        C  0.26427791  0.87591006  0.05017574     0.98800
C407        C  0.28511273  0.83939891  0.97948254     1.06200
O408        O  0.27985599  0.81159882  0.04659721    -1.11000
O409        O  0.25188890  0.73627838  0.04397356    -0.73400
O410        O  0.22123142  0.75092514  0.01623171    -0.76900
O411        O  0.29554201  0.88380976  0.05004403    -0.77600
C412        C  0.22901635  0.72926896  0.02497459     0.97700
O413        O  0.20944297  0.78047371  0.06984715    -0.75500
O414        O  0.32466789  0.78281396  0.04575485    -0.80700
C415        C  0.33435654  0.84486536  0.10286262     1.00300
C416        C  0.34932026  0.80749232  0.03224075     1.06200
O417        O  0.33721640  0.86501451  0.08258284    -0.76400
C418        C  0.21656495  0.76995897  0.09303679     1.04500
Fe419      Fe  0.44433173  0.87253602  0.28656113     1.65800
Fe420      Fe  0.42211207  0.80036593  0.24621588     1.73200
Fe421      Fe  0.50192204  0.84509538  0.27678537     1.54400
O422        O  0.52804251  0.89762686  0.26724663    -0.80100
O423        O  0.42665109  0.76531187  0.27114936    -0.78400
O424        O  0.48994648  0.91441852  0.27267887    -0.82600
O425        O  0.46409356  0.87227381  0.32770509    -0.77500
O426        O  0.50978074  0.83765157  0.23371384    -0.79200
O427        O  0.38064373  0.79139294  0.27158994    -0.82000
C428        C  0.48481724  0.86350348  0.33720532     0.98800
C429        C  0.51958571  0.92035199  0.26584595     1.06200
O430        O  0.45609663  0.83933622  0.26996381    -1.11000
O431        O  0.41451683  0.83189254  0.21938271    -0.73400
O432        O  0.42285942  0.87611830  0.24740864    -0.76900
O433        O  0.50032641  0.85328904  0.32079701    -0.77600
C434        C  0.41388674  0.85917129  0.22355538     0.97700
O435        O  0.39640682  0.83546288  0.30192294    -0.75500
O436        O  0.45746590  0.80294691  0.21616002    -0.80700
C437        C  0.45158133  0.76581727  0.28405935     1.00300
C438        C  0.48977080  0.81910511  0.21363270     1.06200
O439        O  0.48105015  0.79285732  0.28664115    -0.76400
C440        C  0.37422069  0.80637274  0.29187765     1.04500
Fe441      Fe  0.10135627  0.59357645  0.28737720     1.65800
Fe442      Fe  0.17321518  0.64402767  0.24625368     1.73200
Fe443      Fe  0.13106275  0.67995495  0.27921815     1.54400
O444        O  0.07879982  0.65415941  0.26935182    -0.80100
O445        O  0.20952086  0.68495467  0.27016245    -0.78400
O446        O  0.05992641  0.59863305  0.27604310    -0.82600
O447        O  0.10451448  0.61344444  0.32919563    -0.77500
O448        O  0.13950698  0.69705632  0.23667871    -0.79200
O449        O  0.18293607  0.61233578  0.27146031    -0.82000
C450        C  0.11296855  0.64297680  0.33901447     0.98800
C451        C  0.05506933  0.62281373  0.26891900     1.06200
O452        O  0.13522122  0.63914894  0.27102116    -1.11000
O453        O  0.14071708  0.60351117  0.22020319    -0.73400
O454        O  0.09486106  0.56870963  0.24750878    -0.76900
O455        O  0.12215397  0.66882925  0.32289739    -0.77600
C456        C  0.11222124  0.57609247  0.22394916     0.97700
O457        O  0.13763518  0.58099190  0.30005535    -0.75500
O458        O  0.16943551  0.67590331  0.21636215    -0.80700
C459        C  0.20977580  0.70867011  0.28510776     1.00300
C460        C  0.15546751  0.69388710  0.21535402     1.06200
O461        O  0.18312834  0.71065976  0.28969355    -0.76400
C462        C  0.16720643  0.58927529  0.29053300     1.04500
Fe463      Fe  0.17070562  0.45854814  0.02935435     1.65800
Fe464      Fe  0.19303546  0.53080536  0.06964532     1.73200
Fe465      Fe  0.11310994  0.48596810  0.03927362     1.54400
O466        O  0.11433825  0.47730976  0.99531088    -0.80100
O467        O  0.15783133  0.52823613  0.09985026    -0.78400
O468        O  0.15094343  0.45882312  0.98823028    -0.82600
O469        O  0.12506941  0.41667504  0.04324663    -0.77500
O470        O  0.13397144  0.53810309  0.02905973    -0.79200
O471        O  0.20080013  0.49933690  0.09640813    -0.82000
C472        C  0.09553691  0.41081455  0.05040104     0.98800
C473        C  0.12994019  0.46727156  0.97883040     1.06200
O474        O  0.15897929  0.49177637  0.04598068    -1.11000
O475        O  0.23440390  0.53982254  0.04412924    -0.73400
O476        O  0.21867204  0.49559015  0.01399626    -0.76900
O477        O  0.08710850  0.43356681  0.04919844    -0.77600
C478        C  0.24083187  0.52476544  0.02391816     0.97700
O479        O  0.19212298  0.45491660  0.06848662    -0.75500
O480        O  0.18829859  0.56578144  0.04476118    -0.80700
C481        C  0.12553441  0.51229528  0.10236970     1.00300
C482        C  0.16339992  0.56518376  0.03169986     1.06200
O483        O  0.10546472  0.49384117  0.08228709    -0.76400
C484        C  0.20123306  0.47194568  0.09228784     1.04500
Fe485      Fe  0.51353183  0.73817242  0.02842161     1.65800
Fe486      Fe  0.44162064  0.68774449  0.06953121     1.73200
Fe487      Fe  0.48388767  0.65182459  0.03676631     1.54400
O488        O  0.49326378  0.66309888  0.99313194    -0.80100
O489        O  0.44566366  0.65627341  0.09969344    -0.78400
O490        O  0.50997551  0.71823786  0.98661229    -0.82600
O491        O  0.55500938  0.73302143  0.03938641    -0.77500
O492        O  0.43194863  0.62116769  0.02594117    -0.79200
O493        O  0.47404255  0.72861056  0.09533883    -0.82000
C494        C  0.55981550  0.70892793  0.04693712     0.98800
C495        C  0.50199843  0.68879208  0.97692021     1.06200
O496        O  0.47966543  0.69261742  0.04484022    -1.11000
O497        O  0.43161410  0.71900073  0.04402808    -0.73400
O498        O  0.47733026  0.75100094  0.01605727    -0.76900
O499        O  0.53601575  0.67761720  0.04698178    -0.77600
C500        C  0.44755249  0.74238097  0.02525794     0.97700
O501        O  0.52036558  0.76298682  0.06833381    -0.75500
O502        O  0.40535885  0.64646978  0.04587010    -0.80700
C503        C  0.45928088  0.63796738  0.10066081     1.00300
C504        C  0.40521148  0.62292986  0.03072854     1.06200
O505        O  0.47497787  0.63449964  0.07927169    -0.76400
C506        C  0.50277869  0.75580952  0.09174462     1.04500
Fe507      Fe  0.37969933  0.53079889  0.28558846     1.65800
Fe508      Fe  0.33031967  0.55348986  0.24598513     1.73200
Fe509      Fe  0.29309363  0.47350837  0.27645735     1.54400
O510        O  0.31842883  0.44691726  0.26620014    -0.80100
O511        O  0.28978477  0.54831434  0.27036497    -0.78400
O512        O  0.37401825  0.48412867  0.27326719    -0.82600
O513        O  0.35921814  0.51298777  0.32709449    -0.77500
O514        O  0.27691661  0.46588082  0.23364442    -0.79200
O515        O  0.36258984  0.59464833  0.27196820    -0.82000
C516        C  0.32934512  0.49171654  0.33658554     0.98800
C517        C  0.34966784  0.45472451  0.26586479     1.06200
O518        O  0.33441174  0.51929285  0.26940806    -1.11000
O519        O  0.37054884  0.56214348  0.21955026    -0.73400
O520        O  0.40471181  0.55018150  0.24583759    -0.76900
O521        O  0.30353101  0.47509928  0.32021848    -0.77600
C522        C  0.39756843  0.56080702  0.22271856     0.97700
O523        O  0.39333799  0.57992658  0.29951297    -0.75500
O524        O  0.29773128  0.51829583  0.21551295    -0.80700
C525        C  0.26510711  0.52371274  0.28391352     1.00300
C526        C  0.27980533  0.48599636  0.21332480     1.06200
O527        O  0.26242568  0.49451927  0.28718606    -0.76400
C528        C  0.38558623  0.60163139  0.29083688     1.04500
Fe529      Fe  0.90140528  0.13366618  0.36375166     1.65800
Fe530      Fe  0.95069328  0.11098048  0.40350959     1.73200
Fe531      Fe  0.98794640  0.19101861  0.37318732     1.54400
O532        O  0.97766770  0.18957546  0.32941751    -0.80100
O533        O  0.98320424  0.14610768  0.43406429    -0.78400
O534        O  0.92201317  0.15171501  0.32235652    -0.82600
O535        O  0.90695576  0.18023840  0.37620437    -0.77500
O536        O  0.01868129  0.17009712  0.36251018    -0.79200
O537        O  0.91039561  0.10232721  0.42985900    -0.82000
C538        C  0.93127011  0.20963130  0.38368078     0.98800
C539        C  0.95190812  0.17305857  0.31297885     1.06200
O540        O  0.94664276  0.14519277  0.38007749    -1.11000
O541        O  0.91849874  0.06985444  0.37745507    -0.73400
O542        O  0.88797930  0.08464224  0.34966948    -0.76900
O543        O  0.96251806  0.21748790  0.38340420    -0.77600
C544        C  0.89566958  0.06291925  0.35842793     0.97700
O545        O  0.87622172  0.11409370  0.40337573    -0.75500
O546        O  0.99132516  0.11623833  0.37919795    -0.80700
C547        C  0.00110385  0.17840130  0.43631899     1.00300
C548        C  0.01603491  0.14091648  0.36573350     1.06200
O549        O  0.00398826  0.19855725  0.41603905    -0.76400
C550        C  0.88334916  0.10358972  0.42656894     1.04500
Fe551      Fe  0.11072274  0.20570912  0.62004709     1.65800
Fe552      Fe  0.08879528  0.13379005  0.57944141     1.73200
Fe553      Fe  0.16842610  0.17841801  0.61034539     1.54400
O554        O  0.19453137  0.23100453  0.60097009    -0.80100
O555        O  0.09319985  0.09863589  0.60434302    -0.78400
O556        O  0.15632432  0.24768561  0.60622359    -0.82600
O557        O  0.13043289  0.20542187  0.66122576    -0.77500
O558        O  0.17653394  0.17120462  0.56728778    -0.79200
O559        O  0.04716805  0.12469648  0.60465119    -0.82000
C560        C  0.15109756  0.19659323  0.67076527     0.98800
C561        C  0.18602030  0.25368986  0.59950014     1.06200
O562        O  0.12262268  0.17264158  0.60338672    -1.11000
O563        O  0.08135297  0.16543848  0.55264156    -0.73400
O564        O  0.08925406  0.20932975  0.58091235    -0.76900
O565        O  0.16662222  0.18638643  0.65437262    -0.77600
C566        C  0.08050334  0.19257771  0.55695983     0.97700
O567        O  0.06281433  0.16847327  0.63530639    -0.75500
O568        O  0.12433206  0.13651361  0.54951754    -0.80700
C569        C  0.11805927  0.09909604  0.61734494     1.00300
C570        C  0.15665045  0.15271795  0.54712086     1.06200
O571        O  0.14752015  0.12612768  0.62004418    -0.76400
C572        C  0.04066101  0.13948855  0.62505004     1.04500
Fe573      Fe  0.18037655  0.07170642  0.36204569     1.65800
Fe574      Fe  0.10849607  0.02153888  0.40327611     1.73200
Fe575      Fe  0.15039210  0.98529335  0.37043950     1.54400
O576        O  0.15942084  0.99634712  0.32676771    -0.80100
O577        O  0.11222354  0.98975850  0.43330218    -0.78400
O578        O  0.17699889  0.05169712  0.32027990    -0.82600
O579        O  0.22172737  0.06647057  0.37324122    -0.77500
O580        O  0.09830779  0.95470943  0.35993149    -0.79200
O581        O  0.14114865  0.06216893  0.42917786    -0.82000
C582        C  0.22647381  0.04226305  0.38051852     0.98800
C583        C  0.16859857  0.02213889  0.31057453     1.06200
O584        O  0.14641059  0.02621746  0.37851180    -1.11000
O585        O  0.09882248  0.05313843  0.37793421    -0.73400
O586        O  0.14422246  0.08450688  0.34944872    -0.76900
O587        O  0.20263661  0.01095938  0.38032369    -0.77600
C588        C  0.11462207  0.07621803  0.35889886     0.97700
O589        O  0.18714188  0.09666475  0.40188285    -0.75500
O590        O  0.07203711  0.98051028  0.37951007    -0.80700
C591        C  0.12599581  0.97159790  0.43433302     1.00300
C592        C  0.07169265  0.95674959  0.36455761     1.06200
O593        O  0.14183831  0.96825026  0.41300453    -0.76400
C594        C  0.16978165  0.08943814  0.42542774     1.04500
Fe595      Fe  0.76768548  0.92669860  0.62086921     1.65800
Fe596      Fe  0.83937435  0.97699957  0.57950951     1.73200
Fe597      Fe  0.79739898  0.01305335  0.61254691     1.54400
O598        O  0.74511564  0.98724580  0.60275954    -0.80100
O599        O  0.87577662  0.01781633  0.60345754    -0.78400
O600        O  0.72623333  0.93172782  0.60954952    -0.82600
O601        O  0.77092433  0.94667488  0.66266346    -0.77500
O602        O  0.80575632  0.03012271  0.56999952    -0.79200
O603        O  0.84899455  0.94510860  0.60454611    -0.82000
C604        C  0.77940185  0.97623610  0.67242530     0.98800
C605        C  0.72137831  0.95589976  0.60238188     1.06200
O606        O  0.80149857  0.97221439  0.60438387    -1.11000
O607        O  0.80667709  0.93659163  0.55346278    -0.73400
O608        O  0.76111453  0.90171895  0.58104706    -0.76900
O609        O  0.78857762  0.00204060  0.65625096    -0.77600
C610        C  0.77827236  0.90911591  0.55737112     0.97700
O611        O  0.80398982  0.91415260  0.63353893    -0.75500
O612        O  0.83577190  0.00906739  0.54970863    -0.80700
C613        C  0.87611124  0.04161952  0.61833566     1.00300
C614        C  0.82181094  0.02705517  0.54870230     1.06200
O615        O  0.84951257  0.04371074  0.62290202    -0.76400
C616        C  0.83340230  0.92220734  0.62376977     1.04500
Fe617      Fe  0.83704368  0.79217285  0.36270911     1.65800
Fe618      Fe  0.85928291  0.86431476  0.40314291     1.73200
Fe619      Fe  0.77939091  0.81954137  0.37265241     1.54400
O620        O  0.78066622  0.81095663  0.32869335    -0.80100
O621        O  0.82401961  0.86145077  0.43342611    -0.78400
O622        O  0.81738080  0.79260991  0.32158399    -0.82600
O623        O  0.79134762  0.75024493  0.37647458    -0.77500
O624        O  0.80023766  0.87168350  0.36247580    -0.79200
O625        O  0.86724101  0.83285441  0.42976138    -0.82000
C626        C  0.76180724  0.74436091  0.38364336     0.98800
C627        C  0.79634649  0.80102396  0.31220120     1.06200
O628        O  0.82526797  0.82534397  0.37939528    -1.11000
O629        O  0.90064983  0.87355399  0.37753071    -0.73400
O630        O  0.88508448  0.82928299  0.34747482    -0.76900
O631        O  0.75338381  0.76712128  0.38251498    -0.77600
C632        C  0.90716829  0.85851781  0.35736379     0.97700
O633        O  0.85838561  0.78838316  0.40183570    -0.75500
O634        O  0.85444926  0.89935857  0.37844254    -0.80700
C635        C  0.79171364  0.84557516  0.43585253     1.00300
C636        C  0.82962489  0.89877808  0.36526550     1.06200
O637        O  0.77168947  0.82734287  0.41566031    -0.76400
C638        C  0.86762858  0.80544332  0.42561900     1.04500
Fe639      Fe  0.04610848  0.86406482  0.61899405     1.65800
Fe640      Fe  0.99662232  0.88664239  0.57940771     1.73200
Fe641      Fe  0.95954541  0.80662318  0.60978035     1.54400
O642        O  0.98500924  0.78014529  0.59959676    -0.80100
O643        O  0.95599678  0.88129925  0.60374760    -0.78400
O644        O  0.04057272  0.81744998  0.60665411    -0.82600
O645        O  0.02561634  0.84619048  0.66048023    -0.77500
O646        O  0.94347090  0.79900575  0.56690649    -0.79200
O647        O  0.02877235  0.92779700  0.60544564    -0.82000
C648        C  0.99574613  0.82489437  0.66996240     0.98800
C649        C  0.01626434  0.78801446  0.59926646     1.06200
O650        O  0.00080057  0.85247110  0.60279219    -1.11000
O651        O  0.03694063  0.89547426  0.55300984    -0.73400
O652        O  0.07111852  0.88351280  0.57927816    -0.76900
O653        O  0.96993813  0.80825857  0.65358129    -0.77600
C654        C  0.06398398  0.89418074  0.55618590     0.97700
O655        O  0.05964537  0.91317055  0.63292483    -0.75500
O656        O  0.96413586  0.85145023  0.54888400    -0.80700
C657        C  0.93130031  0.85661296  0.61720132     1.00300
C658        C  0.94630885  0.81915082  0.54662166     1.06200
O659        O  0.92869929  0.82745167  0.62043392    -0.76400
C660        C  0.05181366  0.93482977  0.62428109     1.04500
Fe661      Fe  0.90190038  0.79283251  0.86238328     1.65800
Fe662      Fe  0.95217271  0.86470664  0.90356488     1.73200
Fe663      Fe  0.98833565  0.82279760  0.87055780     1.54400
O664        O  0.96270249  0.77056438  0.88045539    -0.80100
O665        O  0.99317797  0.90113965  0.87977696    -0.78400
O666        O  0.90716191  0.75147598  0.87353745    -0.82600
O667        O  0.92181468  0.79623805  0.82054123    -0.77500
O668        O  0.00546784  0.83132881  0.91308910    -0.79200
O669        O  0.92052053  0.87441383  0.87829631    -0.82000
C670        C  0.95135508  0.80466869  0.81073871     0.98800
C671        C  0.93139579  0.74673257  0.88074745     1.06200
O672        O  0.94743269  0.82679476  0.87876174    -1.11000
O673        O  0.91158222  0.83210144  0.92952017    -0.73400
O674        O  0.87703674  0.78608212  0.90228501    -0.76900
O675        O  0.97719071  0.81381006  0.82687562    -0.77600
C676        C  0.88429957  0.80347574  0.92581289     0.97700
O677        O  0.88906031  0.82898130  0.84987578    -0.75500
O678        O  0.98398519  0.86090744  0.93351187    -0.80700
C679        C  0.01690152  0.90147149  0.86477253     1.00300
C680        C  0.00212951  0.84711120  0.93446771     1.06200
O681        O  0.01890148  0.87485613  0.86006696    -0.76400
C682        C  0.89736918  0.85858604  0.85931616     1.04500
Fe683      Fe  0.10833610  0.92608881  0.11957451     1.65800
Fe684      Fe  0.08564756  0.97537787  0.07979491     1.73200
Fe685      Fe  0.16581087  0.01254776  0.10989405     1.54400
O686        O  0.16456770  0.00229218  0.15367393    -0.80100
O687        O  0.12066897  0.00759661  0.04902158    -0.78400
O688        O  0.12626517  0.94680163  0.16095073    -0.82600
O689        O  0.15495253  0.93156721  0.10728320    -0.77500
O690        O  0.14503922  0.04336019  0.12073044    -0.79200
O691        O  0.07665169  0.93483751  0.05363497    -0.82000
C692        C  0.18427753  0.95577318  0.09950982     0.98800
C693        C  0.14785230  0.97666643  0.17021700     1.06200
O694        O  0.11990116  0.97129970  0.10315241    -1.11000
O695        O  0.04462442  0.94352224  0.10608346    -0.73400
O696        O  0.05923791  0.91261854  0.13352558    -0.76900
O697        O  0.19212541  0.98701239  0.09949859    -0.77600
C698        C  0.03761351  0.92053996  0.12496876     0.97700
O699        O  0.08889908  0.90089969  0.07994981    -0.75500
O700        O  0.09122627  0.01623803  0.10392675    -0.80700
C701        C  0.15296099  0.02560435  0.04673940     1.00300
C702        C  0.11592603  0.04085473  0.11744676     1.06200
O703        O  0.17316899  0.02861466  0.06702721    -0.76400
C704        C  0.07813491  0.90790548  0.05685143     1.04500
Fe705      Fe  0.18117868  0.13610729  0.86312235     1.65800
Fe706      Fe  0.10904263  0.11395602  0.90352342     1.73200
Fe707      Fe  0.15370653  0.19367947  0.87280656     1.54400
O708        O  0.20626897  0.21985760  0.88225361    -0.80100
O709        O  0.07393767  0.11840832  0.87858353    -0.78400
O710        O  0.22309937  0.18178919  0.87689539    -0.82600
O711        O  0.18078300  0.15573354  0.82191921    -0.77500
O712        O  0.14635790  0.20163906  0.91587070    -0.79200
O713        O  0.10004517  0.07244034  0.87823375    -0.82000
C714        C  0.17194693  0.17639879  0.81238684     0.98800
C715        C  0.22902524  0.21144094  0.88366195     1.06200
O716        O  0.14798513  0.14788897  0.87971272    -1.11000
O717        O  0.14060229  0.10641432  0.93036162    -0.73400
O718        O  0.18482522  0.11472339  0.90232869    -0.76900
O719        O  0.16178497  0.19195818  0.82878778    -0.77600
C720        C  0.16786227  0.10574152  0.92618365     0.97700
O721        O  0.14408829  0.08812015  0.84787632    -0.75500
O722        O  0.11165062  0.14937220  0.93351031    -0.80700
C723        C  0.07440692  0.14330296  0.86564882     1.00300
C724        C  0.12782578  0.18167723  0.93598310     1.06200
O725        O  0.10143653  0.17277129  0.86302976    -0.76400
C726        C  0.11500326  0.06596223  0.85796539     1.04500
Fe727      Fe  0.83934797  0.07140312  0.86406187     1.65800
Fe728      Fe  0.86196205  0.02195903  0.90365050     1.73200
Fe729      Fe  0.78197720  0.98484615  0.87322184     1.54400
O730        O  0.75540755  0.01025823  0.88330725    -0.80100
O731        O  0.85690216  0.98159486  0.87909589    -0.78400
O732        O  0.79278230  0.06586896  0.87659545    -0.82600
O733        O  0.82127328  0.05093450  0.82258787    -0.77500
O734        O  0.77429122  0.96882887  0.91607488    -0.79200
O735        O  0.90320578  0.05444918  0.87783046    -0.82000
C736        C  0.80010877  0.02103794  0.81307914     0.98800
C737        C  0.76329453  0.04151484  0.88381730     1.06200
O738        O  0.82779038  0.02611298  0.88024099    -1.11000
O739        O  0.87043505  0.06200811  0.93022515    -0.73400
O740        O  0.85899637  0.09643201  0.90375435    -0.76900
O741        O  0.78365641  0.99517951  0.82943120    -0.77600
C742        C  0.86937577  0.08916306  0.92695515     0.97700
O743        O  0.88837433  0.08485201  0.84994123    -0.75500
O744        O  0.82672569  0.98913853  0.93399722    -0.80700
C745        C  0.83217032  0.95680360  0.86576279     1.00300
C746        C  0.79441725  0.97144210  0.93628253     1.06200
O747        O  0.80292407  0.95406901  0.86267592    -0.76400
C748        C  0.91014879  0.07727969  0.85880666     1.04500
Fe749      Fe  0.04684587  0.20520615  0.12119493     1.65800
Fe750      Fe  0.99657114  0.13341915  0.07990775     1.73200
Fe751      Fe  0.96048504  0.17547614  0.11273840     1.54400
O752        O  0.97157896  0.18460122  0.15640012    -0.80100
O753        O  0.96496149  0.13734683  0.04982292    -0.78400
O754        O  0.02681846  0.20172702  0.16296395    -0.82600
O755        O  0.04172351  0.24665721  0.11012380    -0.77500
O756        O  0.92982054  0.12345868  0.12332576    -0.79200
O757        O  0.03733852  0.16599626  0.05409252    -0.82000
C758        C  0.01759034  0.25146553  0.10270907     0.98800
C759        C  0.99730134  0.19355219  0.17262865     1.06200
O760        O  0.00133710  0.17135197  0.10468654    -1.11000
O761        O  0.02798497  0.12353301  0.10530965    -0.73400
O762        O  0.05956855  0.16897511  0.13367926    -0.76900
O763        O  0.98627080  0.22766910  0.10275574    -0.77600
C764        C  0.05114805  0.13932914  0.12428181     0.97700
O765        O  0.07180193  0.21203263  0.08134860    -0.75500
O766        O  0.95538769  0.09703656  0.10357736    -0.80700
C767        C  0.94674996  0.15106598  0.04883282     1.00300
C768        C  0.93171076  0.09678485  0.11859614     1.06200
O769        O  0.94335686  0.16683408  0.07019546    -0.76400
C770        C  0.06459880  0.19463863  0.05782770     1.04500
Fe771      Fe  0.76695157  0.86225387  0.12016582     1.65800
Fe772      Fe  0.83915103  0.88436919  0.07983169     1.73200
Fe773      Fe  0.79431777  0.80458586  0.11046564     1.54400
O774        O  0.78565133  0.80596730  0.15439621    -0.80100
O775        O  0.83641514  0.84903984  0.04969647    -0.78400
O776        O  0.76728107  0.84267849  0.16134721    -0.82600
O777        O  0.72503437  0.81656370  0.10641517    -0.77500
O778        O  0.84644536  0.82546447  0.12072874    -0.79200
O779        O  0.80768139  0.89215480  0.05307578    -0.82000
C780        C  0.71916005  0.78701345  0.09932169     0.98800
C781        C  0.77568107  0.82167168  0.17081494     1.06200
O782        O  0.80014092  0.85043152  0.10359264    -1.11000
O783        O  0.84830359  0.92581401  0.10528115    -0.73400
O784        O  0.80405659  0.91027395  0.13537058    -0.76900
O785        O  0.74191458  0.77858509  0.10053594    -0.77600
C786        C  0.83327165  0.93234756  0.12544337     0.97700
O787        O  0.76325799  0.88351864  0.08098184    -0.75500
O788        O  0.87416199  0.87964751  0.10469633    -0.80700
C789        C  0.82053360  0.81673604  0.04732130     1.00300
C790        C  0.87354761  0.85484756  0.11794828     1.06200
O791        O  0.80220198  0.79676403  0.06750441    -0.76400
C792        C  0.78029239  0.89260441  0.05718383     1.04500
C793        C  0.90569802  0.06408252  0.13007673    -0.16900
C794        C  0.88608976  0.03430883  0.13609867     0.07100
C795        C  0.86548758  0.99812914  0.13849875     0.09000
C796        C  0.84971794  0.96726785  0.13574999    -0.17800
C797        C  0.76928128  0.90533240  0.03357798    -0.16900
C798        C  0.76704772  0.91896206  0.01182293     0.07100
C799        C  0.77161760  0.93690536  0.98547944     0.09000
C800        C  0.78020336  0.95282690  0.96291395    -0.17800
C801        C  0.92850162  0.14772439  0.02230962    -0.16900
C802        C  0.91291861  0.14125969  0.99962496     0.07100
C803        C  0.89525454  0.12856062  0.97297050     0.09000
C804        C  0.88179174  0.11291033  0.95089659    -0.17800
C805        C  0.08860129  0.20674255  0.03408651    -0.16900
C806        C  0.10455124  0.20945161  0.01213322     0.07100
C807        C  0.11754869  0.20490730  0.98551994     0.09000
C808        C  0.12421599  0.19611378  0.96275143    -0.17800
C809        C  0.04204319  0.13726120  0.85437430    -0.16900
C810        C  0.01236528  0.12736485  0.84852927     0.07100
C811        C  0.97618223  0.11191104  0.84612876     0.09000
C812        C  0.94524347  0.09663216  0.84869573    -0.17800
C813        C  0.00257331  0.90137966  0.13523834    -0.16900
C814        C  0.97164457  0.88620086  0.13786819     0.07100
C815        C  0.93547332  0.87079600  0.13541709     0.09000
C816        C  0.90583035  0.86090373  0.12943637    -0.17800
C817        C  0.16706299  0.04423265  0.02006239    -0.16900
C818        C  0.17571809  0.06037126  0.99758953     0.07100
C819        C  0.18058613  0.07872964  0.97140682     0.09000
C820        C  0.17868225  0.09273252  0.94974664    -0.17800
C821        C  0.11005908  0.06731748  0.12856832    -0.16900
C822        C  0.10021473  0.08703951  0.13410919     0.07100
C823        C  0.08487816  0.10758254  0.13624465     0.09000
C824        C  0.06988951  0.12318476  0.13377222    -0.17800
C825        C  0.86030655  0.79143567  0.94956710    -0.16900
C826        C  0.84428702  0.78882254  0.97145484     0.07100
C827        C  0.83112763  0.79346533  0.99793973     0.09000
C828        C  0.82430168  0.80230549  0.02060914    -0.17800
C829        C  0.87854315  0.87465792  0.84983189    -0.16900
C830        C  0.86350430  0.89021003  0.84728722     0.07100
C831        C  0.84808902  0.91070315  0.84927623     0.09000
C832        C  0.83814989  0.93038220  0.85469798    -0.17800
C833        C  0.06593360  0.88418882  0.03290138    -0.16900
C834        C  0.05280716  0.86873565  0.01067869     0.07100
C835        C  0.03557108  0.85641724  0.98381140     0.09000
C836        C  0.02026174  0.85026503  0.96101006    -0.17800
C837        C  0.09863075  0.03103478  0.84769413    -0.16900
C838        C  0.08293450  0.00017691  0.84493199     0.07100
C839        C  0.06240444  0.96399154  0.84729518     0.09000
C840        C  0.04284839  0.93420155  0.85329438    -0.17800
C841        C  0.95692303  0.80500907  0.77977017    -0.16900
C842        C  0.96655224  0.80842938  0.75469878     0.07100
C843        C  0.97994081  0.81441519  0.72594535     0.09000
C844        C  0.98973310  0.81975707  0.70088502    -0.17800
C845        C  0.79028785  0.80058552  0.28127695    -0.16900
C846        C  0.78442293  0.80371312  0.25606375     0.07100
C847        C  0.77828746  0.80984308  0.22698274     0.09000
C848        C  0.77518421  0.81567573  0.20175463    -0.17800
C849        C  0.88044500  0.79443096  0.44917778    -0.16900
C850        C  0.89408253  0.79214885  0.47092028     0.07100
C851        C  0.91195840  0.79656257  0.49729603     0.09000
C852        C  0.92778997  0.80499891  0.51992068    -0.17800
C853        C  0.77977785  0.98187703  0.70338458    -0.16900
C854        C  0.78328769  0.99162003  0.72842608     0.07100
C855        C  0.78942115  0.00515926  0.75712899     0.09000
C856        C  0.79488978  0.01504392  0.78216155    -0.17800
C857        C  0.76625445  0.88504473  0.53368616    -0.16900
C858        C  0.76371095  0.86902355  0.51182269     0.07100
C859        C  0.76844886  0.85594872  0.48533476     0.09000
C860        C  0.77732881  0.84923123  0.46263542    -0.17800
C861        C  0.90486286  0.86257500  0.62826371    -0.16900
C862        C  0.88526221  0.87261434  0.63368334     0.07100
C863        C  0.86492593  0.88820293  0.63568070     0.09000
C864        C  0.84948369  0.90335784  0.63316976    -0.17800
C865        C  0.15323495  0.98291866  0.20107009    -0.16900
C866        C  0.15877042  0.99297318  0.22603752     0.07100
C867        C  0.16489793  0.00666956  0.25465645     0.09000
C868        C  0.16833535  0.01648695  0.27965363    -0.17800
C869        C  0.12264001  0.95336661  0.46086711    -0.16900
C870        C  0.11616614  0.93779743  0.48355801     0.07100
C871        C  0.10343648  0.92012456  0.51020344     0.09000
C872        C  0.08775290  0.90663591  0.53225829    -0.17800
C873        C  0.03895610  0.93083142  0.35302108    -0.16900
C874        C  0.00917848  0.91130645  0.34690786     0.07100
C875        C  0.97298833  0.89074956  0.34437748     0.09000
C876        C  0.94210400  0.87497483  0.34704650    -0.17800
C877        C  0.17217226  0.18216634  0.78139967    -0.16900
C878        C  0.16890184  0.18781782  0.75614178     0.07100
C879        C  0.16271773  0.19381454  0.72700587     0.09000
C880        C  0.15694106  0.19693045  0.70174733    -0.17800
C881        C  0.17119654  0.14917259  0.52038936    -0.16900
C882        C  0.18005449  0.14249692  0.49765795     0.07100
C883        C  0.18462198  0.12943731  0.47109019     0.09000
C884        C  0.18190243  0.11344093  0.44916647    -0.17800
C885        C  0.90883956  0.06755359  0.62981430    -0.16900
C886        C  0.93865641  0.08703644  0.63577860     0.07100
C887        C  0.97485796  0.10744115  0.63808402     0.09000
C888        C  0.00571590  0.12306787  0.63529358    -0.17800
C889        C  0.07114697  0.96992018  0.63438941    -0.16900
C890        C  0.08646330  0.00085668  0.63693807     0.07100
C891        C  0.10200004  0.03704020  0.63450193     0.09000
C892        C  0.11196990  0.06672299  0.62862945    -0.17800
C893        C  0.95803116  0.17838021  0.28211114    -0.16900
C894        C  0.96805145  0.18385871  0.25713476     0.07100
C895        C  0.98176147  0.18990891  0.22852384     0.09000
C896        C  0.99160831  0.19329625  0.20354017    -0.17800
C897        C  0.82512758  0.04534642  0.52221425    -0.16900
C898        C  0.83148751  0.06080620  0.49947355     0.07100
C899        C  0.84403824  0.07818386  0.47268545     0.09000
C900        C  0.85960913  0.09137653  0.45051686    -0.17800
C901        C  0.06761860  0.20355949  0.53344046    -0.16900
C902        C  0.05381543  0.20573007  0.51176813     0.07100
C903        C  0.03569740  0.20112776  0.48551024     0.09000
C904        C  0.01969709  0.19255926  0.46297834    -0.17800
C905        C  0.87642669  0.02787297  0.34820056    -0.16900
C906        C  0.86115666  0.99694828  0.34556643     0.07100
C907        C  0.84563719  0.96076478  0.34796573     0.09000
C908        C  0.83567641  0.93109388  0.35387391    -0.17800
C909        C  0.04245629  0.13496437  0.35462141    -0.16900
C910        C  0.06220817  0.12515194  0.34907403     0.07100
C911        C  0.08284304  0.10991113  0.34691868     0.09000
C912        C  0.09850969  0.09498399  0.34938269    -0.17800
C913        C  0.42128153  0.57315864  0.19873626    -0.16900
C914        C  0.43685479  0.58656587  0.17661025     0.07100
C915        C  0.44947228  0.60416479  0.14990582     0.09000
C916        C  0.45591351  0.61971147  0.12719655    -0.17800
C917        C  0.59382877  0.71821527  0.05693333    -0.16900
C918        C  0.62255330  0.72936644  0.06659873     0.07100
C919        C  0.65633962  0.74575996  0.07855853     0.09000
C920        C  0.68510798  0.76262934  0.08854845    -0.17800
C921        C  0.21394309  0.46091469  0.11589556    -0.16900
C922        C  0.22751822  0.45866435  0.13768239     0.07100
C923        C  0.24538240  0.46321270  0.16407131     0.09000
C924        C  0.26124316  0.47178536  0.18666915    -0.17800
C925        C  0.27572776  0.54112447  0.01354475    -0.16900
C926        C  0.30658787  0.55681673  0.01074643     0.07100
C927        C  0.34277876  0.57735135  0.01312104     0.09000
C928        C  0.37255302  0.59693100  0.01916795    -0.17800
C929        C  0.02683786  0.28548301  0.09277175    -0.16900
C930        C  0.03796891  0.31421930  0.08315024     0.07100
C931        C  0.05433584  0.34801464  0.07121843     0.09000
C932        C  0.07117686  0.37677985  0.06122124    -0.17800
C933        C  0.23878113  0.52980526  0.29504533    -0.16900
C934        C  0.21921587  0.53987378  0.30051975     0.07100
C935        C  0.19883986  0.55541607  0.30255079     0.09000
C936        C  0.18332980  0.57049945  0.30002000    -0.17800
C937        C  0.11122615  0.51612477  0.12913423    -0.16900
C938        C  0.10244156  0.52296126  0.15183060     0.07100
C939        C  0.09777985  0.53609409  0.17832402     0.09000
C940        C  0.10031045  0.55209012  0.20020592    -0.17800
C941        C  0.33931744  0.79004596  0.30221530    -0.16900
C942        C  0.30846279  0.77445831  0.30503110     0.07100
C943        C  0.27226259  0.75407500  0.30268998     0.09000
C944        C  0.24246224  0.73460360  0.29666135    -0.17800
C945        C  0.50414835  0.81545374  0.18683904    -0.16900
C946        C  0.51289930  0.80874714  0.16406348     0.07100
C947        C  0.51743465  0.79571687  0.13746146     0.09000
C948        C  0.51477428  0.77976982  0.11551737    -0.17800
C949        C  0.44557885  0.73347958  0.29534645    -0.16900
C950        C  0.43569201  0.70380998  0.30118979     0.07100
C951        C  0.42022820  0.66763302  0.30356944     0.09000
C952        C  0.40493750  0.63670527  0.30097280    -0.17800
C953        C  0.25508252  0.90070539  0.06019217    -0.16900
C954        C  0.24349760  0.91801773  0.06933236     0.07100
C955        C  0.22642681  0.93503479  0.08035600     0.09000
C956        C  0.20907888  0.94658200  0.08949301    -0.17800
C957        C  0.20984763  0.69421926  0.01475059    -0.16900
C958        C  0.19466181  0.66330172  0.01208405     0.07100
C959        C  0.17925884  0.62712934  0.01442977     0.09000
C960        C  0.16939057  0.59747251  0.02030571    -0.17800
C961        C  0.19282786  0.75775979  0.11697979    -0.16900
C962        C  0.17729766  0.74461962  0.13917272     0.07100
C963        C  0.16486250  0.72736028  0.16601785     0.09000
C964        C  0.15863953  0.71203356  0.18881574    -0.17800
C965        C  0.40101998  0.87009864  0.19997257    -0.16900
C966        C  0.38722443  0.87221892  0.17826794     0.07100
C967        C  0.36907990  0.86758808  0.15201080     0.09000
C968        C  0.35302505  0.85902284  0.12950063    -0.17800
C969        C  0.43142534  0.76116076  0.01580850    -0.16900
C970        C  0.41586529  0.77620099  0.01337289     0.07100
C971        C  0.39539286  0.79162180  0.01553814     0.09000
C972        C  0.37573385  0.80154763  0.02109544    -0.17800
C973        C  0.49070566  0.86387818  0.36817006    -0.16900
C974        C  0.49639539  0.86072269  0.39343604     0.07100
C975        C  0.50236625  0.85460978  0.42258849     0.09000
C976        C  0.50541943  0.84883788  0.44785493    -0.17800
C977        C  0.59604717  0.90236021  0.56078122    -0.16900
C978        C  0.62485393  0.91922152  0.57071755     0.07100
C979        C  0.65866299  0.93557466  0.58266189     0.09000
C980        C  0.68738155  0.94668085  0.59234813    -0.17800
C981        C  0.48664612  0.64983087  0.86732912    -0.16900
C982        C  0.49211569  0.65979048  0.89232327     0.07100
C983        C  0.49820893  0.67338300  0.92097715     0.09000
C984        C  0.50166829  0.68314156  0.94599358    -0.17800
C985        C  0.50085170  0.71135478  0.68645143    -0.16900
C986        C  0.50942346  0.72741416  0.66395201     0.07100
C987        C  0.51403087  0.74560528  0.63774107     0.09000
C988        C  0.51185752  0.75944275  0.61609676    -0.17800
C989        C  0.12810044  0.68146606  0.44880827    -0.16900
C990        C  0.12276136  0.67162188  0.42376666     0.07100
C991        C  0.11675064  0.65817389  0.39504131     0.09000
C992        C  0.11330246  0.64851994  0.36998032    -0.17800
C993        C  0.27822013  0.76310970  0.51522056    -0.16900
C994        C  0.30915201  0.77843378  0.51261056     0.07100
C995        C  0.34534051  0.79396204  0.51498601     0.09000
C996        C  0.37502567  0.80390851  0.52083467    -0.17800
C997        C  0.02535150  0.76309546  0.58933120    -0.16900
C998        C  0.03687841  0.74568447  0.58028749     0.07100
C999        C  0.05392264  0.72857069  0.56938871     0.09000
C1000       C  0.07129852  0.71700210  0.56034588    -0.17800
C1001       C  0.32475440  0.85983675  0.86999990    -0.16900
C1002       C  0.31496551  0.85635116  0.89500767     0.07100
C1003       C  0.30130642  0.85021465  0.92364013     0.09000
C1004       C  0.29129285  0.84471089  0.94861856    -0.17800
C1005       C  0.42148104  0.87350282  0.70038815    -0.16900
C1006       C  0.43749314  0.87622864  0.67847225     0.07100
C1007       C  0.45059359  0.87168954  0.65191725     0.09000
C1008       C  0.45730607  0.86286288  0.62918923    -0.17800
C1009       C  0.40309035  0.79003325  0.79997782    -0.16900
C1010       C  0.41807436  0.77441151  0.80238035     0.07100
C1011       C  0.43338361  0.75383498  0.80020393     0.09000
C1012       C  0.44323369  0.73410696  0.79467778    -0.17800
C1013       C  0.21477675  0.77962082  0.61739987    -0.16900
C1014       C  0.22821941  0.79529818  0.63946575     0.07100
C1015       C  0.24586434  0.80801268  0.66612261     0.09000
C1016       C  0.26143078  0.81446320  0.68881293    -0.17800
C1017       C  0.10871642  0.48190630  0.86837388    -0.16900
C1018       C  0.11181762  0.47600963  0.89359101     0.07100
C1019       C  0.11795209  0.46985494  0.92267625     0.09000
C1020       C  0.12383307  0.46675509  0.94789802    -0.17800
C1021       C  0.10270364  0.57203303  0.70038905    -0.16900
C1022       C  0.10046030  0.58571021  0.67866041     0.07100
C1023       C  0.10494442  0.60366755  0.65232435     0.09000
C1024       C  0.11342901  0.61956888  0.62973797    -0.17800
C1025       C  0.18312328  0.63380514  0.80243039    -0.16900
C1026       C  0.19879880  0.66468555  0.80509803     0.07100
C1027       C  0.21926197  0.70088523  0.80262247     0.09000
C1028       C  0.23876540  0.73068323  0.79656878    -0.17800
C1029       C  0.33614639  0.56801265  0.80124361    -0.16900
C1030       C  0.30522277  0.55274268  0.80393650     0.07100
C1031       C  0.26902834  0.53724210  0.80163240     0.09000
C1032       C  0.23934324  0.52730765  0.79578862    -0.17800
C1033       C  0.29010480  0.47161358  0.44624804    -0.16900
C1034       C  0.29984433  0.47511475  0.42121065     0.07100
C1035       C  0.31339890  0.48119212  0.39252049     0.09000
C1036       C  0.32331174  0.48658517  0.36749857    -0.17800
C1037       C  0.21187127  0.54145702  0.51633552    -0.16900
C1038       C  0.19677779  0.55696102  0.51383781     0.07100
C1039       C  0.18123524  0.57733407  0.51589031     0.09000
C1040       C  0.17118903  0.59691590  0.52136262    -0.17800
C1041       C  0.39967269  0.55121681  0.69901819    -0.16900
C1042       C  0.38638570  0.53557523  0.67690775     0.07100
C1043       C  0.36889378  0.52298581  0.65018198     0.09000
C1044       C  0.35339561  0.51666193  0.62746991    -0.17800
C1045       C  0.15755123  0.46898573  0.68703258    -0.16900
C1046       C  0.16422562  0.46011537  0.66430904     0.07100
C1047       C  0.17723743  0.45540811  0.63777339     0.09000
C1048       C  0.19322073  0.45798642  0.61587516    -0.17800
C1049       C  0.37599203  0.60063451  0.51986930    -0.16900
C1050       C  0.39544114  0.63045555  0.51388883     0.07100
C1051       C  0.41579270  0.66665958  0.51153180     0.09000
C1052       C  0.43137780  0.69752240  0.51426979    -0.17800
C1053       C  0.21048230  0.28781387  0.58886224    -0.16900
C1054       C  0.22738246  0.31662844  0.57894259     0.07100
C1055       C  0.24380392  0.35044840  0.56700374     0.09000
C1056       C  0.25496494  0.37917289  0.55730749    -0.17800
C1057       C  0.92229101  0.71274972  0.89071830    -0.16900
C1058       C  0.91124412  0.68401327  0.90033293     0.07100
C1059       C  0.89491279  0.65016501  0.91218670     0.09000
C1060       C  0.87803150  0.62132453  0.92204702    -0.17800
C1061       C  0.84878239  0.44676938  0.78217324    -0.16900
C1062       C  0.85157489  0.46277365  0.80410875     0.07100
C1063       C  0.84711297  0.47584195  0.83071459     0.09000
C1064       C  0.83834275  0.48253205  0.85348491    -0.17800
C1065       C  0.92724848  0.38478573  0.72354096    -0.16900
C1066       C  0.95598037  0.39590433  0.73318884     0.07100
C1067       C  0.98977813  0.41227344  0.74514080     0.09000
C1068       C  0.01855055  0.42911850  0.75513976    -0.17800
C1069       C  0.73833224  0.30343192  0.96766205    -0.16900
C1070       C  0.75370869  0.33436870  0.97022031     0.07100
C1071       C  0.76930616  0.37055927  0.96778402     0.09000
C1072       C  0.77930823  0.40024520  0.96189652    -0.17800
C1073       C  0.75464647  0.24003293  0.86541186    -0.16900
C1074       C  0.77028047  0.25344521  0.84331957     0.07100
C1075       C  0.78295793  0.27105778  0.81664370     0.09000
C1076       C  0.78941342  0.28661756  0.79394978    -0.17800
C1077       C  0.69214600  0.09652082  0.92248078    -0.16900
C1078       C  0.70372642  0.07912679  0.91350663     0.07100
C1079       C  0.72087195  0.06206657  0.90270808     0.09000
C1080       C  0.73831963  0.05054735  0.89373029    -0.17800
C1081       C  0.60889577  0.20798082  0.68051046    -0.16900
C1082       C  0.63977232  0.22376297  0.67779455     0.07100
C1083       C  0.67596223  0.24438989  0.68021859     0.09000
C1084       C  0.70574762  0.26399859  0.68623627    -0.17800
C1085       C  0.54701866  0.12762668  0.78259524    -0.16900
C1086       C  0.56072691  0.12544748  0.80432209     0.07100
C1087       C  0.57874008  0.13008196  0.83063872     0.09000
C1088       C  0.59467379  0.13868134  0.85319919    -0.17800
C1089       C  0.40413531  0.04351172  0.72769833    -0.16900
C1090       C  0.38722945  0.01472504  0.73765231     0.07100
C1091       C  0.37080215  0.98091280  0.74957504     0.09000
C1092       C  0.35965721  0.95217432  0.75921058    -0.17800
C1093       C  0.50262197  0.26437035  0.68719644    -0.16900
C1094       C  0.51255770  0.29403676  0.68128495     0.07100
C1095       C  0.52804592  0.33021755  0.67885655     0.09000
C1096       C  0.54330732  0.36114958  0.68144626    -0.17800
C1097       C  0.73500034  0.53703478  0.86645074    -0.16900
C1098       C  0.72108975  0.53911818  0.84480651     0.07100
C1099       C  0.70279205  0.53446076  0.81863214     0.09000
C1100       C  0.68665021  0.52590236  0.79616497    -0.17800
C1101       C  0.70950558  0.46863125  0.68786807    -0.16900
C1102       C  0.72922319  0.45877156  0.68234094     0.07100
C1103       C  0.74972419  0.44338496  0.68018094     0.09000
C1104       C  0.76526749  0.42832810  0.68260537    -0.17800
C1105       C  0.58878418  0.56777479  0.72674812    -0.16900
C1106       C  0.57724270  0.58515692  0.73580625     0.07100
C1107       C  0.56019373  0.60223167  0.74674371     0.09000
C1108       C  0.54282574  0.61377880  0.75582885    -0.17800
C1109       C  0.43339430  0.21880881  0.86694101    -0.16900
C1110       C  0.43077180  0.20277912  0.84506128     0.07100
C1111       C  0.43537140  0.18960308  0.81857043     0.09000
C1112       C  0.44415076  0.18275520  0.79587960    -0.17800
C1113       C  0.49230844  0.37881571  0.85549591    -0.16900
C1114       C  0.49857478  0.39417337  0.83271341     0.07100
C1115       C  0.51102815  0.41146799  0.80588761     0.09000
C1116       C  0.52655028  0.42463541  0.78369966    -0.17800
C1117       C  0.57195518  0.19632053  0.96156925    -0.16900
C1118       C  0.55231340  0.20629383  0.96705446     0.07100
C1119       C  0.53188305  0.22177507  0.96914084     0.09000
C1120       C  0.51638336  0.23687743  0.96666970    -0.17800
C1121       C  0.67305532  0.45675091  0.96845287    -0.16900
C1122       C  0.64219706  0.44114247  0.97127634     0.07100
C1123       C  0.60598160  0.42074185  0.96902626     0.09000
C1124       C  0.57614271  0.40125589  0.96311669    -0.17800
C1125       C  0.35457859  0.28064203  0.92565830    -0.16900
C1126       C  0.32582437  0.26946467  0.91602193     0.07100
C1127       C  0.29197006  0.25295657  0.90414738     0.09000
C1128       C  0.26314257  0.23597010  0.89426988    -0.17800
C1129       C  0.82410239  0.53032347  0.03484002    -0.16900
C1130       C  0.82972572  0.52711173  0.06011437     0.07100
C1131       C  0.83571471  0.52102008  0.08927232     0.09000
C1132       C  0.83884512  0.51530973  0.11454111    -0.17800
C1133       C  0.92970083  0.56900515  0.22738984    -0.16900
C1134       C  0.95851453  0.58596473  0.23729252     0.07100
C1135       C  0.99234182  0.60243348  0.24920773     0.09000
C1136       C  0.02107533  0.61359932  0.25888090    -0.17800
C1137       C  0.44198799  0.14893160  0.53506980    -0.16900
C1138       C  0.44510324  0.14308581  0.56029623     0.07100
C1139       C  0.45123292  0.13696270  0.58938951     0.09000
C1140       C  0.45708465  0.13384476  0.61461333    -0.17800
C1141       C  0.35184365  0.09593953  0.42189661    -0.16900
C1142       C  0.32305234  0.07900991  0.41195647     0.07100
C1143       C  0.28922435  0.06255756  0.40006729     0.09000
C1144       C  0.26047243  0.05141285  0.39046048    -0.17800
C1145       C  0.46150913  0.34848243  0.11545174    -0.16900
C1146       C  0.45607426  0.33862639  0.09041683     0.07100
C1147       C  0.45004554  0.32515093  0.06170409     0.09000
C1148       C  0.44666737  0.31547459  0.03665555    -0.17800
C1149       C  0.61184633  0.42979414  0.18176987    -0.16900
C1150       C  0.64278358  0.44501648  0.17920059     0.07100
C1151       C  0.67895843  0.46042546  0.18163749     0.09000
C1152       C  0.70862436  0.47031009  0.18752265    -0.17800
C1153       C  0.44704014  0.28656623  0.29638127    -0.16900
C1154       C  0.43847651  0.27065564  0.31896159     0.07100
C1155       C  0.43386532  0.25266187  0.34529738     0.09000
C1156       C  0.43602157  0.23895897  0.36704489    -0.17800
C1157       C  0.35870966  0.42978445  0.25590521    -0.16900
C1158       C  0.37030365  0.41243540  0.24685920     0.07100
C1159       C  0.38747444  0.39544338  0.23597941     0.09000
C1160       C  0.40493668  0.38396338  0.22696324    -0.17800
C1161       C  0.69319229  0.61894748  0.42588117    -0.16900
C1162       C  0.70427351  0.64768782  0.41627584     0.07100
C1163       C  0.72060352  0.68150174  0.40436879     0.09000
C1164       C  0.73743669  0.71028986  0.39440520    -0.17800
C1165       C  0.62490474  0.51170587  0.61530347    -0.16900
C1166       C  0.63491223  0.51722703  0.59031972     0.07100
C1167       C  0.64858525  0.52335490  0.56168600     0.09000
C1168       C  0.65839190  0.52680243  0.53668168    -0.17800
C1169       C  0.75504697  0.54007280  0.36706809    -0.16900
C1170       C  0.77104536  0.54268870  0.34516559     0.07100
C1171       C  0.78413389  0.53805980  0.31863420     0.09000
C1172       C  0.79085604  0.52922166  0.29591283    -0.17800
C1173       C  0.59500431  0.48121997  0.35549567    -0.16900
C1174       C  0.57948696  0.47480580  0.33278179     0.07100
C1175       C  0.56191289  0.46214205  0.30608916     0.09000
C1176       C  0.54851518  0.44650447  0.28399681    -0.17800
C1177       C  0.57228934  0.39753699  0.46340417    -0.16900
C1178       C  0.55271124  0.36777190  0.46950419     0.07100
C1179       C  0.53210208  0.33158970  0.47199597     0.09000
C1180       C  0.51631533  0.30071559  0.46929457    -0.17800
C1181       C  0.81994566  0.31614761  0.53411689    -0.16900
C1182       C  0.82549065  0.32613432  0.55910282     0.07100
C1183       C  0.83162075  0.33981726  0.58772729     0.09000
C1184       C  0.83505487  0.34965973  0.61271682    -0.17800
C1185       C  0.83417916  0.37796052  0.35328111    -0.16900
C1186       C  0.84282979  0.39400965  0.33077198     0.07100
C1187       C  0.84757524  0.41218770  0.30451960     0.09000
C1188       C  0.84550721  0.42601669  0.28281957    -0.17800
C1189       C  0.57263330  0.19437601  0.46264028    -0.16900
C1190       C  0.60230055  0.20425619  0.46850857     0.07100
C1191       C  0.63848150  0.21964810  0.47082741     0.09000
C1192       C  0.66940106  0.23481601  0.46812354    -0.17800
C1193       C  0.77666786  0.40079648  0.46156054    -0.16900
C1194       C  0.76683226  0.42053889  0.46706165     0.07100
C1195       C  0.75152500  0.44111676  0.46918336     0.09000
C1196       C  0.73654671  0.45673653  0.46673316    -0.17800
C1197       C  0.87605032  0.28032423  0.42267997    -0.16900
C1198       C  0.89350314  0.26885853  0.41364666     0.07100
C1199       C  0.91063662  0.25186975  0.40273457     0.09000
C1200       C  0.92219679  0.23451722  0.39366049    -0.17800
C1201       C  0.65659312  0.15307476  0.03403169    -0.16900
C1202       C  0.64665332  0.14761605  0.05904785     0.07100
C1203       C  0.63305538  0.14151934  0.08772879     0.09000
C1204       C  0.62329863  0.13806229  0.11276197    -0.17800
C1205       C  0.54513129  0.20808883  0.18293609    -0.16900
C1206       C  0.53004087  0.22359883  0.18044613     0.07100
C1207       C  0.51453434  0.24400913  0.18248582     0.09000
C1208       C  0.50453494  0.26363355  0.18794325    -0.17800
C1209       C  0.68701239  0.18357432  0.29385659    -0.16900
C1210       C  0.70238874  0.18989913  0.31663844     0.07100
C1211       C  0.71966552  0.20241011  0.34347086     0.09000
C1212       C  0.73280716  0.21794458  0.36566341    -0.17800
C1213       C  0.49122195  0.13614938  0.35380198    -0.16900
C1214       C  0.49802800  0.12732682  0.33110912     0.07100
C1215       C  0.51108921  0.12259905  0.30459615     0.09000
C1216       C  0.52701345  0.12508610  0.28267312    -0.17800
C1217       C  0.70947116  0.26724781  0.18616326    -0.16900
C1218       C  0.72902288  0.29705771  0.18022102     0.07100
C1219       C  0.74949895  0.33325927  0.17795240     0.09000
C1220       C  0.76515516  0.36411129  0.18077899    -0.17800
C1221       C  0.58829525  0.04582277  0.22373427    -0.16900
C1222       C  0.57720878  0.01708837  0.23336481     0.07100
C1223       C  0.56088330  0.98326076  0.24525609     0.09000
C1224       C  0.54403624  0.95444558  0.25516998    -0.17800
loop_ 
_geom_bond_atom_site_label_1 
_geom_bond_atom_site_label_2 
_geom_bond_distance 
_geom_bond_site_symmetry_2 
_ccdc_geom_bond_type 
Fe1          O17   2.084       .  S
Fe1           O7   2.082       .  S
Fe1          O14   2.079       .  S
Fe1           O6   2.075       .  S
Fe1          O12   1.987       .  S
Fe2           O5   2.055       .  S
Fe2           O9   2.062       .  S
Fe2          O13   2.047       .  S
Fe2          O18   2.062       .  S
Fe2          O12   1.973       .  S
Fe3          O21   2.095       .  S
Fe3           O8   2.054       .  S
Fe3          O15   2.045       .  S
Fe3           O4   2.088       .  S
Fe3          O12   1.989       .  S
O4           C11   1.271       .  A
O5           C19   1.267       .  A
O6           C11   1.269       .  A
O7           C10   1.271       .  A
O8           C20   1.262       .  A
O9           C22   1.265       .  A
C10          O15   1.263       .  A
C10        C1204   1.433       .  S
C11        C1221   1.452       .  S
O13          C16   1.266       .  A
O14          C16   1.271       .  A
C16        C1216   1.430       .  S
O17          C22   1.269       .  A
O18          C20   1.265       .  A
C19          O21   1.274       .  A
C19        C1217   1.442       .  S
C20        C1209   1.432       .  S
C22        C1205   1.446       .  S
Fe23         O39   2.079       .  S
Fe23         O29   2.074       .  S
Fe23         O36   2.083       .  S
Fe23         O28   2.081       .  S
Fe23         O34   1.988       .  S
Fe24         O27   2.063       .  S
Fe24         O31   2.048       .  S
Fe24         O35   2.059       .  S
Fe24         O40   2.054       .  S
Fe24         O34   1.973       .  S
Fe25         O43   2.055       .  S
Fe25         O30   2.105       .  S
Fe25         O37   2.098       .  S
Fe25         O26   2.046       .  S
Fe25         O34   1.987       .  S
O26          C33   1.264       .  A
O27          C41   1.265       .  A
O28          C33   1.271       .  A
O29          C32   1.268       .  A
O30          C42   1.276       .  A
O31          C44   1.267       .  A
C32          O37   1.273       .  A
C32        C1197   1.457       .  S
C33        C1181   1.432       .  S
O35          C38   1.264       .  A
O36          C38   1.269       .  A
C38        C1192   1.445       .  S
O39          C44   1.271       .  A
O40          C42   1.267       .  A
C41          O43   1.262       .  A
C41        C1185   1.433       .  S
C42        C1193   1.447       .  S
C44        C1212   1.431       .  S
Fe45         O61   2.077       .  S
Fe45         O51   2.075       .  S
Fe45         O58   2.084       .  S
Fe45         O50   2.080       .  S
Fe45         O56   1.988       .  S
Fe46         O49   2.062       .  S
Fe46         O53   2.048       .  S
Fe46         O57   2.061       .  S
Fe46         O62   2.056       .  S
Fe46         O56   1.974       .  S
Fe47         O65   2.055       .  S
Fe47         O52   2.095       .  S
Fe47         O59   2.087       .  S
Fe47         O48   2.046       .  S
Fe47         O56   1.989       .  S
O48          C55   1.263       .  A
O49          C63   1.265       .  A
O50          C55   1.271       .  A
O51          C54   1.269       .  A
O52          C64   1.274       .  A
O53          C66   1.267       .  A
C54          O59   1.271       .  A
C54        C1161   1.452       .  S
C55        C1168   1.432       .  S
O57          C60   1.265       .  A
O58          C60   1.269       .  A
C60        C1196   1.446       .  S
O61          C66   1.271       .  A
O62          C64   1.267       .  A
C63          O65   1.262       .  A
C63        C1173   1.432       .  S
C64        C1177   1.443       .  S
C66        C1169   1.430       .  S
Fe67         O83   2.084       .  S
Fe67         O73   2.081       .  S
Fe67         O80   2.079       .  S
Fe67         O72   2.075       .  S
Fe67         O78   1.988       .  S
Fe68         O71   2.054       .  S
Fe68         O75   2.058       .  S
Fe68         O79   2.048       .  S
Fe68         O84   2.063       .  S
Fe68         O78   1.974       .  S
Fe69         O87   2.105       .  S
Fe69         O74   2.056       .  S
Fe69         O81   2.048       .  S
Fe69         O70   2.099       .  S
Fe69         O78   1.988       .  S
O70          C77   1.273       .  A
O71          C85   1.266       .  A
O72          C77   1.268       .  A
O73          C76   1.272       .  A
O74          C86   1.263       .  A
O75          C88   1.264       .  A
C76          O81   1.264       .  A
C76        C1145   1.433       .  S
C77        C1160   1.458       .  S
O79          C82   1.267       .  A
O80          C82   1.271       .  A
C82        C1176   1.431       .  S
O83          C88   1.269       .  A
O84          C86   1.265       .  A
C85          O87   1.276       .  A
C85        C1208   1.447       .  S
C86        C1153   1.433       .  S
C88        C1149   1.445       .  S
Fe89        O105   2.084       .  S
Fe89         O95   2.069       .  S
Fe89        O102   2.077       .  S
Fe89         O94   2.086       .  S
Fe89        O100   1.986       .  S
Fe90         O93   2.064       .  S
Fe90         O97   2.047       .  S
Fe90        O101   2.060       .  S
Fe90        O106   2.054       .  S
Fe90        O100   1.973       .  S
Fe91        O109   2.054       .  S
Fe91         O96   2.103       .  S
Fe91        O103   2.094       .  S
Fe91         O92   2.049       .  S
Fe91        O100   1.985       .  S
O92          C99   1.264       .  A
O93         C107   1.265       .  A
O94          C99   1.272       .  A
O95          C98   1.267       .  A
O96         C108   1.276       .  A
O97         C110   1.267       .  A
C98         O103   1.273       .  A
C98        C1141   1.452       .  S
C99        C1137   1.437       .  S
O101        C104   1.265       .  A
O102        C104   1.268       .  A
C104       C1180   1.442       .  S
O105        C110   1.272       .  A
O106        C108   1.267       .  A
C107        O109   1.262       .  A
C107       C1213   1.432       .  S
C108       C1189   1.445       .  S
C110       C1156   1.432       .  S
Fe111       O127   2.076       .  S
Fe111       O117   2.087       .  S
Fe111       O124   2.085       .  S
Fe111       O116   2.068       .  S
Fe111       O122   1.985       .  S
Fe112       O115   2.054       .  S
Fe112       O119   2.061       .  S
Fe112       O123   2.046       .  S
Fe112       O128   2.064       .  S
Fe112       O122   1.972       .  S
Fe113       O131   2.104       .  S
Fe113       O118   2.053       .  S
Fe113       O125   2.049       .  S
Fe113       O114   2.095       .  S
Fe113       O122   1.984       .  S
O114        C121   1.273       .  A
O115        C129   1.267       .  A
O116        C121   1.267       .  A
O117        C120   1.272       .  A
O118        C130   1.262       .  A
O119        C132   1.265       .  A
C120        O125   1.264       .  A
C120       C1132   1.438       .  S
C121       C1133   1.452       .  S
O123        C126   1.266       .  A
O124        C126   1.272       .  A
C126       C1188   1.432       .  S
O127        C132   1.267       .  A
O128        C130   1.265       .  A
C129        O131   1.276       .  A
C129       C1152   1.446       .  S
C130       C1172   1.432       .  S
C132       C1220   1.441       .  S
Fe133       O149   2.084       .  S
Fe133       O139   2.082       .  S
Fe133       O146   2.078       .  S
Fe133       O138   2.074       .  S
Fe133       O144   1.987       .  S
Fe134       O137   2.055       .  S
Fe134       O141   2.062       .  S
Fe134       O145   2.047       .  S
Fe134       O150   2.062       .  S
Fe134       O144   1.973       .  S
Fe135       O153   2.096       .  S
Fe135       O140   2.054       .  S
Fe135       O147   2.045       .  S
Fe135       O136   2.089       .  S
Fe135       O144   1.989       .  S
O136        C143   1.272       .  A
O137        C151   1.267       .  A
O138        C143   1.268       .  A
O139        C142   1.271   1_556  A
O140        C152   1.262       .  A
O141        C154   1.265       .  A
C142        O147   1.263   1_554  A
C142       C1148   1.433       .  S
C143       C1125   1.452       .  S
O145        C148   1.266       .  A
O146        C148   1.271       .  A
C148       C1109   1.430       .  S
O149        C154   1.269       .  A
O150        C152   1.265       .  A
C151        O153   1.274       .  A
C151       C1124   1.442       .  S
C152       C1113   1.432       .  S
C154       C1120   1.446       .  S
Fe155       O171   2.079       .  S
Fe155       O161   2.074       .  S
Fe155       O168   2.083       .  S
Fe155       O160   2.081       .  S
Fe155       O166   1.988       .  S
Fe156       O159   2.063       .  S
Fe156       O163   2.048       .  S
Fe156       O167   2.059       .  S
Fe156       O172   2.054       .  S
Fe156       O166   1.973       .  S
Fe157       O175   2.056       .  S
Fe157       O162   2.105       .  S
Fe157       O169   2.098       .  S
Fe157       O158   2.047       .  S
Fe157       O166   1.987       .  S
O158        C165   1.264       .  A
O159        C173   1.265       .  A
O160        C165   1.271       .  A
O161        C164   1.268       .  A
O162        C174   1.276       .  A
O163        C176   1.267       .  A
C164        O169   1.273       .  A
C164       C1105   1.457       .  S
C165       C1165   1.432       .  S
O167        C170   1.264       .  A
O168        C170   1.269       .  A
C170       C1096   1.445       .  S
O171        C176   1.271       .  A
O172        C174   1.267       .  A
C173        O175   1.263       .  A
C173       C1100   1.433       .  S
C174       C1101   1.446       .  S
C176       C1116   1.430       .  S
Fe177       O193   2.084       .  S
Fe177       O183   2.068       .  S
Fe177       O190   2.077       .  S
Fe177       O182   2.086       .  S
Fe177       O188   1.985       .  S
Fe178       O181   2.064       .  S
Fe178       O185   2.046       .  S
Fe178       O189   2.061       .  S
Fe178       O194   2.054       .  S
Fe178       O188   1.972       .  S
Fe179       O197   2.053       .  S
Fe179       O184   2.104       .  S
Fe179       O191   2.095       .  S
Fe179       O180   2.048       .  S
Fe179       O188   1.984       .  S
O180        C187   1.264       .  A
O181        C195   1.265       .  A
O182        C187   1.272       .  A
O183        C186   1.267       .  A
O184        C196   1.277       .  A
O185        C198   1.267       .  A
C186        O191   1.273       .  A
C186       C1089   1.452       .  S
C187       C1140   1.437       .  S
O189        C192   1.265       .  A
O190        C192   1.268       .  A
C192       C1081   1.441       .  S
O193        C198   1.272       .  A
O194        C196   1.267       .  A
C195        O197   1.261       .  A
C195       C1112   1.432       .  S
C196       C1093   1.446       .  S
C198       C1085   1.431       .  S
Fe199       O215   2.083       .  S
Fe199       O205   2.082       .  S
Fe199       O212   2.079       .  S
Fe199       O204   2.074       .  S
Fe199       O210   1.988       .  S
Fe200       O203   2.054       .  S
Fe200       O207   2.059       .  S
Fe200       O211   2.048       .  S
Fe200       O216   2.063       .  S
Fe200       O210   1.974       .  S
Fe201       O219   2.106       .  S
Fe201       O206   2.055       .  S
Fe201       O213   2.047       .  S
Fe201       O202   2.100       .  S
Fe201       O210   1.988       .  S
O202        C209   1.273       .  A
O203        C217   1.266       .  A
O204        C209   1.268       .  A
O205        C208   1.272   1_556  A
O206        C218   1.262       .  A
O207        C220   1.264       .  A
C208        O213   1.264   1_554  A
C208       C1201   1.433       .  S
C209       C1077   1.458       .  S
O211        C214   1.267       .  A
O212        C214   1.272       .  A
C214       C1073   1.431       .  S
O215        C220   1.269       .  A
O216        C218   1.265       .  A
C217        O219   1.276       .  A
C217       C1117   1.447       .  S
C218       C1088   1.432       .  S
C220       C1069   1.445       .  S
Fe221       O237   2.077       .  S
Fe221       O227   2.075       .  S
Fe221       O234   2.084       .  S
Fe221       O226   2.080       .  S
Fe221       O232   1.988       .  S
Fe222       O225   2.062       .  S
Fe222       O229   2.048       .  S
Fe222       O233   2.061       .  S
Fe222       O238   2.056       .  S
Fe222       O232   1.974       .  S
Fe223       O241   2.054       .  S
Fe223       O228   2.095       .  S
Fe223       O235   2.088       .  S
Fe223       O224   2.045       .  S
Fe223       O232   1.989       .  S
O224        C231   1.263       .  A
O225        C239   1.265       .  A
O226        C231   1.271       .  A
O227        C230   1.269       .  A
O228        C240   1.274       .  A
O229        C242   1.267       .  A
C230        O235   1.271       .  A
C230       C1065   1.452       .  S
C231       C1184   1.432       .  S
O233        C236   1.265       .  A
O234        C236   1.269       .  A
C236       C1104   1.446       .  S
O237        C242   1.271       .  A
O238        C240   1.267       .  A
C239        O241   1.262       .  A
C239       C1076   1.432       .  S
C240       C1084   1.443       .  S
C242       C1061   1.430       .  S
Fe243       O259   2.075       .  S
Fe243       O249   2.087       .  S
Fe243       O256   2.085       .  S
Fe243       O248   2.068       .  S
Fe243       O254   1.985       .  S
Fe244       O247   2.054       .  S
Fe244       O251   2.062       .  S
Fe244       O255   2.046       .  S
Fe244       O260   2.064       .  S
Fe244       O254   1.972       .  S
Fe245       O263   2.104       .  S
Fe245       O250   2.053       .  S
Fe245       O257   2.049       .  S
Fe245       O246   2.096       .  S
Fe245       O254   1.985       .  S
O246        C253   1.273       .  A
O247        C261   1.267       .  A
O248        C253   1.267       .  A
O249        C252   1.272   1_556  A
O250        C262   1.262       .  A
O251        C264   1.265       .  A
C252        O257   1.264   1_554  A
C252       C1129   1.438       .  S
C253       C1060   1.452       .  S
O255        C258   1.266       .  A
O256        C258   1.272       .  A
C258       C1097   1.432       .  S
O259        C264   1.267       .  A
O260        C262   1.265       .  A
C261        O263   1.277       .  A
C261       C1072   1.446       .  S
C262       C1064   1.432       .  S
C264       C1121   1.441       .  S
Fe265       O281   2.084       .  S
Fe265       O271   2.081       .  S
Fe265       O278   2.077       .  S
Fe265       O270   2.075       .  S
Fe265       O276   1.987       .  S
Fe266       O269   2.055       .  S
Fe266       O273   2.062       .  S
Fe266       O277   2.047       .  S
Fe266       O282   2.062       .  S
Fe266       O276   1.973       .  S
Fe267       O285   2.095       .  S
Fe267       O272   2.054       .  S
Fe267       O279   2.046       .  S
Fe267       O268   2.089       .  S
Fe267       O276   1.989       .  S
O268        C275   1.272       .  A
O269        C283   1.267       .  A
O270        C275   1.269       .  A
O271        C274   1.271       .  A
O272        C284   1.262       .  A
O273        C286   1.265       .  A
C274        O279   1.263       .  A
C274       C1033   1.433       .  S
C275       C1056   1.452       .  S
O277        C280   1.266       .  A
O278        C280   1.271       .  A
C280       C1048   1.430       .  S
O281        C286   1.269       .  A
O282        C284   1.265       .  A
C283        O285   1.274       .  A
C283       C1049   1.442       .  S
C284       C1044   1.432       .  S
C286       C1037   1.446       .  S
Fe287       O303   2.084       .  S
Fe287       O293   2.068       .  S
Fe287       O300   2.077       .  S
Fe287       O292   2.086       .  S
Fe287       O298   1.985       .  S
Fe288       O291   2.063       .  S
Fe288       O295   2.047       .  S
Fe288       O299   2.061       .  S
Fe288       O304   2.055       .  S
Fe288       O298   1.973       .  S
Fe289       O307   2.053       .  S
Fe289       O294   2.104       .  S
Fe289       O301   2.094       .  S
Fe289       O290   2.049       .  S
Fe289       O298   1.985       .  S
O290        C297   1.264       .  A
O291        C305   1.265       .  A
O292        C297   1.272       .  A
O293        C296   1.267       .  A
O294        C306   1.276       .  A
O295        C308   1.266       .  A
C296        O301   1.273       .  A
C296       C1068   1.452       .  S
C297       C1017   1.437       .  S
O299        C302   1.265       .  A
O300        C302   1.268       .  A
C302       C1025   1.442       .  S
O303        C308   1.272       .  A
O304        C306   1.267       .  A
C305        O307   1.261       .  A
C305       C1045   1.432       .  S
C306       C1032   1.445       .  S
C308       C1021   1.432       .  S
Fe309       O325   2.077       .  S
Fe309       O315   2.075       .  S
Fe309       O322   2.084       .  S
Fe309       O314   2.080       .  S
Fe309       O320   1.988       .  S
Fe310       O313   2.062       .  S
Fe310       O317   2.048       .  S
Fe310       O321   2.061       .  S
Fe310       O326   2.056       .  S
Fe310       O320   1.973       .  S
Fe311       O329   2.054       .  S
Fe311       O316   2.095       .  S
Fe311       O323   2.088       .  S
Fe311       O312   2.045       .  S
Fe311       O320   1.989       .  S
O312        C319   1.263       .  A
O313        C327   1.265       .  A
O314        C319   1.271       .  A
O315        C318   1.268       .  A
O316        C328   1.274       .  A
O317        C330   1.267       .  A
C318        O323   1.271       .  A
C318       C1092   1.452       .  S
C319       C1001   1.432       .  S
O321        C324   1.265       .  A
O322        C324   1.269       .  A
C324       C1009   1.446       .  S
O325        C330   1.270       .  A
O326        C328   1.267       .  A
C327        O329   1.262       .  A
C327       C1016   1.432       .  S
C328       C1028   1.443       .  S
C330       C1005   1.430       .  S
Fe331       O347   2.083       .  S
Fe331       O337   2.081       .  S
Fe331       O344   2.079       .  S
Fe331       O336   2.074       .  S
Fe331       O342   1.988       .  S
Fe332       O335   2.054       .  S
Fe332       O339   2.059       .  S
Fe332       O343   2.048       .  S
Fe332       O348   2.063       .  S
Fe332       O342   1.974       .  S
Fe333       O351   2.105       .  S
Fe333       O338   2.056       .  S
Fe333       O345   2.047       .  S
Fe333       O334   2.099       .  S
Fe333       O342   1.988       .  S
O334        C341   1.273       .  A
O335        C349   1.266       .  A
O336        C341   1.268       .  A
O337        C340   1.272       .  A
O338        C350   1.263       .  A
O339        C352   1.264       .  A
C340        O345   1.264       .  A
C340        C989   1.433       .  S
C341       C1000   1.458       .  S
O343        C346   1.267       .  A
O344        C346   1.271       .  A
C346       C1013   1.431       .  S
O347        C352   1.269       .  A
O348        C350   1.265       .  A
C349        O351   1.276       .  A
C349       C1040   1.447       .  S
C350       C1024   1.433       .  S
C352        C993   1.444       .  S
Fe353       O369   2.079       .  S
Fe353       O359   2.074       .  S
Fe353       O366   2.083       .  S
Fe353       O358   2.080       .  S
Fe353       O364   1.988       .  S
Fe354       O357   2.063       .  S
Fe354       O361   2.048       .  S
Fe354       O365   2.059       .  S
Fe354       O370   2.055       .  S
Fe354       O364   1.973       .  S
Fe355       O373   2.055       .  S
Fe355       O360   2.105       .  S
Fe355       O367   2.098       .  S
Fe355       O356   2.046       .  S
Fe355       O364   1.987       .  S
O356        C363   1.264       .  A
O357        C371   1.265       .  A
O358        C363   1.271       .  A
O359        C362   1.268       .  A
O360        C372   1.276       .  A
O361        C374   1.267       .  A
C362        O367   1.273       .  A
C362       C1108   1.457       .  S
C363        C981   1.432       .  S
O365        C368   1.264       .  A
O366        C368   1.269       .  A
C368       C1029   1.445       .  S
O369        C374   1.271       .  A
O370        C372   1.267       .  A
C371        O373   1.262       .  A
C371        C985   1.432       .  S
C372       C1012   1.447       .  S
C374       C1041   1.430       .  S
Fe375       O391   2.076       .  S
Fe375       O381   2.086       .  S
Fe375       O388   2.083       .  S
Fe375       O380   2.068       .  S
Fe375       O386   1.985       .  S
Fe376       O379   2.054       .  S
Fe376       O383   2.061       .  S
Fe376       O387   2.046       .  S
Fe376       O392   2.064       .  S
Fe376       O386   1.972       .  S
Fe377       O395   2.104       .  S
Fe377       O382   2.053       .  S
Fe377       O389   2.049       .  S
Fe377       O378   2.095       .  S
Fe377       O386   1.985       .  S
O378        C385   1.273       .  A
O379        C393   1.267       .  A
O380        C385   1.267       .  A
O381        C384   1.272       .  A
O382        C394   1.261       .  A
O383        C396   1.265       .  A
C384        O389   1.264       .  A
C384        C976   1.438       .  S
C385        C977   1.452       .  S
O387        C390   1.266       .  A
O388        C390   1.272       .  A
C390        C988   1.431       .  S
O391        C396   1.268       .  A
O392        C394   1.265       .  A
C393        O395   1.276       .  A
C393        C996   1.445       .  S
C394       C1008   1.432       .  S
C396       C1052   1.441       .  S
Fe397       O413   2.079       .  S
Fe397       O403   2.074       .  S
Fe397       O410   2.083       .  S
Fe397       O402   2.080   1_554  S
Fe397       O408   1.988       .  S
Fe398       O401   2.063       .  S
Fe398       O405   2.048       .  S
Fe398       O409   2.059       .  S
Fe398       O414   2.055       .  S
Fe398       O408   1.973       .  S
Fe399       O417   2.055       .  S
Fe399       O404   2.105       .  S
Fe399       O411   2.098       .  S
Fe399       O400   2.047   1_554  S
Fe399       O408   1.988       .  S
O400        C407   1.264       .  A
O401        C415   1.265       .  A
O402        C407   1.271       .  A
O403        C406   1.268       .  A
O404        C416   1.276       .  A
O405        C418   1.267       .  A
C406        O411   1.273       .  A
C406        C953   1.457       .  S
C407       C1004   1.432       .  S
O409        C412   1.264       .  A
O410        C412   1.268       .  A
C412        C957   1.445       .  S
O413        C418   1.271       .  A
O414        C416   1.267       .  A
C415        O417   1.262       .  A
C415        C968   1.433       .  S
C416        C972   1.447       .  S
C418        C961   1.430       .  S
Fe419       O435   2.075       .  S
Fe419       O425   2.087       .  S
Fe419       O432   2.085       .  S
Fe419       O424   2.067       .  S
Fe419       O430   1.985       .  S
Fe420       O423   2.054       .  S
Fe420       O427   2.061       .  S
Fe420       O431   2.046       .  S
Fe420       O436   2.064       .  S
Fe420       O430   1.972       .  S
Fe421       O439   2.104       .  S
Fe421       O426   2.054       .  S
Fe421       O433   2.049       .  S
Fe421       O422   2.096       .  S
Fe421       O430   1.984       .  S
O422        C429   1.273       .  A
O423        C437   1.267       .  A
O424        C429   1.267       .  A
O425        C428   1.272       .  A
O426        C438   1.262       .  A
O427        C440   1.265       .  A
C428        O433   1.264       .  A
C428        C973   1.438       .  S
C429       C1224   1.452       .  S
O431        C434   1.266       .  A
O432        C434   1.272       .  A
C434        C965   1.432       .  S
O435        C440   1.267       .  A
O436        C438   1.265       .  A
C437        O439   1.277       .  A
C437        C949   1.445       .  S
C438        C945   1.432       .  S
C440        C941   1.441       .  S
Fe441       O457   2.084       .  S
Fe441       O447   2.081       .  S
Fe441       O454   2.078       .  S
Fe441       O446   2.075       .  S
Fe441       O452   1.987       .  S
Fe442       O445   2.055       .  S
Fe442       O449   2.062       .  S
Fe442       O453   2.047       .  S
Fe442       O458   2.062       .  S
Fe442       O452   1.973       .  S
Fe443       O461   2.095       .  S
Fe443       O448   2.054       .  S
Fe443       O455   2.046       .  S
Fe443       O444   2.088       .  S
Fe443       O452   1.989       .  S
O444        C451   1.272       .  A
O445        C459   1.267       .  A
O446        C451   1.269       .  A
O447        C450   1.271       .  A
O448        C460   1.262       .  A
O449        C462   1.265       .  A
C450        O455   1.263       .  A
C450        C992   1.433       .  S
C451       C1136   1.452       .  S
O453        C456   1.266       .  A
O454        C456   1.271       .  A
C456        C940   1.430       .  S
O457        C462   1.269       .  A
O458        C460   1.265       .  A
C459        O461   1.274       .  A
C459        C944   1.442       .  S
C460        C964   1.432       .  S
C462        C936   1.446       .  S
Fe463       O479   2.083       .  S
Fe463       O469   2.068       .  S
Fe463       O476   2.076       .  S
Fe463       O468   2.086   1_554  S
Fe463       O474   1.985       .  S
Fe464       O467   2.064       .  S
Fe464       O471   2.046       .  S
Fe464       O475   2.061       .  S
Fe464       O480   2.054       .  S
Fe464       O474   1.972       .  S
Fe465       O483   2.053       .  S
Fe465       O470   2.104       .  S
Fe465       O477   2.094       .  S
Fe465       O466   2.049   1_554  S
Fe465       O474   1.984       .  S
O466        C473   1.264       .  A
O467        C481   1.265       .  A
O468        C473   1.272       .  A
O469        C472   1.267       .  A
O470        C482   1.277       .  A
O471        C484   1.266       .  A
C472        O477   1.273       .  A
C472        C932   1.451       .  S
C473       C1020   1.437       .  S
O475        C478   1.265       .  A
O476        C478   1.267       .  A
C478        C925   1.441       .  S
O479        C484   1.272       .  A
O480        C482   1.267       .  A
C481        O483   1.261       .  A
C481        C937   1.432       .  S
C482        C960   1.445       .  S
C484        C921   1.431       .  S
Fe485       O501   2.077       .  S
Fe485       O491   2.075       .  S
Fe485       O498   2.084       .  S
Fe485       O490   2.079   1_554  S
Fe485       O496   1.988       .  S
Fe486       O489   2.062       .  S
Fe486       O493   2.049       .  S
Fe486       O497   2.061       .  S
Fe486       O502   2.056       .  S
Fe486       O496   1.973       .  S
Fe487       O505   2.055       .  S
Fe487       O492   2.094       .  S
Fe487       O499   2.087       .  S
Fe487       O488   2.046   1_554  S
Fe487       O496   1.989       .  S
O488        C495   1.263       .  A
O489        C503   1.265       .  A
O490        C495   1.271       .  A
O491        C494   1.269       .  A
O492        C504   1.274       .  A
O493        C506   1.267       .  A
C494        O499   1.271       .  A
C494        C917   1.451       .  S
C495        C984   1.432       .  S
O497        C500   1.265       .  A
O498        C500   1.269       .  A
C500        C969   1.446       .  S
O501        C506   1.271       .  A
O502        C504   1.267       .  A
C503        O505   1.262       .  A
C503        C916   1.433       .  S
C504        C928   1.442       .  S
C506        C948   1.430       .  S
Fe507       O523   2.083       .  S
Fe507       O513   2.082       .  S
Fe507       O520   2.080       .  S
Fe507       O512   2.074       .  S
Fe507       O518   1.988       .  S
Fe508       O511   2.054       .  S
Fe508       O515   2.059       .  S
Fe508       O519   2.048       .  S
Fe508       O524   2.063       .  S
Fe508       O518   1.974       .  S
Fe509       O527   2.105       .  S
Fe509       O514   2.055       .  S
Fe509       O521   2.047       .  S
Fe509       O510   2.099       .  S
Fe509       O518   1.988       .  S
O510        C517   1.273       .  A
O511        C525   1.266       .  A
O512        C517   1.268       .  A
O513        C516   1.272       .  A
O514        C526   1.262       .  A
O515        C528   1.264       .  A
C516        O521   1.264       .  A
C516       C1036   1.433       .  S
C517       C1157   1.458       .  S
O519        C522   1.267       .  A
O520        C522   1.272       .  A
C522        C913   1.431       .  S
O523        C528   1.269       .  A
O524        C526   1.265       .  A
C525        O527   1.276       .  A
C525        C933   1.447       .  S
C526        C924   1.432       .  S
C528        C952   1.444       .  S
Fe529       O545   2.079       .  S
Fe529       O535   2.074       .  S
Fe529       O542   2.083       .  S
Fe529       O534   2.081       .  S
Fe529       O540   1.988       .  S
Fe530       O533   2.063       .  S
Fe530       O537   2.048       .  S
Fe530       O541   2.059       .  S
Fe530       O546   2.055       .  S
Fe530       O540   1.973       .  S
Fe531       O549   2.055   1_655  S
Fe531       O536   2.104   1_655  S
Fe531       O543   2.098       .  S
Fe531       O532   2.046       .  S
Fe531       O540   1.988       .  S
O532        C539   1.264       .  A
O533        C547   1.265   1_655  A
O534        C539   1.271       .  A
O535        C538   1.268       .  A
O536        C548   1.276       .  A
O537        C550   1.267       .  A
C538        O543   1.273       .  A
C538       C1200   1.457       .  S
C539        C893   1.432       .  S
O541        C544   1.264       .  A
O542        C544   1.269       .  A
C544        C905   1.445       .  S
O545        C550   1.271       .  A
O546        C548   1.267   1_655  A
C547        O549   1.262       .  A
C547        C904   1.433       .  S
C548        C909   1.447       .  S
C550        C900   1.431       .  S
Fe551       O567   2.075       .  S
Fe551       O557   2.087       .  S
Fe551       O564   2.085       .  S
Fe551       O556   2.068       .  S
Fe551       O562   1.984       .  S
Fe552       O555   2.054       .  S
Fe552       O559   2.062       .  S
Fe552       O563   2.046       .  S
Fe552       O568   2.064       .  S
Fe552       O562   1.972       .  S
Fe553       O571   2.105       .  S
Fe553       O558   2.053       .  S
Fe553       O565   2.049       .  S
Fe553       O554   2.096       .  S
Fe553       O562   1.984       .  S
O554        C561   1.273       .  A
O555        C569   1.267       .  A
O556        C561   1.267       .  A
O557        C560   1.272       .  A
O558        C570   1.261       .  A
O559        C572   1.265       .  A
C560        O565   1.264       .  A
C560        C880   1.438       .  S
C561       C1053   1.452       .  S
O563        C566   1.266       .  A
O564        C566   1.272       .  A
C566        C901   1.432       .  S
O567        C572   1.267       .  A
O568        C570   1.265       .  A
C569        O571   1.277       .  A
C569        C892   1.446       .  S
C570        C881   1.432       .  S
C572        C888   1.441       .  S
Fe573       O589   2.077       .  S
Fe573       O579   2.074       .  S
Fe573       O586   2.084       .  S
Fe573       O578   2.080       .  S
Fe573       O584   1.988       .  S
Fe574       O577   2.062   1_545  S
Fe574       O581   2.048       .  S
Fe574       O585   2.061       .  S
Fe574       O590   2.056   1_545  S
Fe574       O584   1.973       .  S
Fe575       O593   2.054       .  S
Fe575       O580   2.095       .  S
Fe575       O587   2.088   1_565  S
Fe575       O576   2.045       .  S
Fe575       O584   1.989   1_565  S
O576        C583   1.263   1_565  A
O577        C591   1.265       .  A
O578        C583   1.271       .  A
O579        C582   1.268       .  A
O580        C592   1.274       .  A
O581        C594   1.267       .  A
C582        O587   1.271       .  A
C582       C1144   1.452       .  S
C583        C868   1.432       .  S
O585        C588   1.265       .  A
O586        C588   1.269       .  A
C588        C912   1.446       .  S
O589        C594   1.271       .  A
O590        C592   1.267       .  A
C591        O593   1.262       .  A
C591        C869   1.432       .  S
C592        C873   1.443       .  S
C594        C884   1.430       .  S
Fe595       O611   2.084       .  S
Fe595       O601   2.082       .  S
Fe595       O608   2.078       .  S
Fe595       O600   2.075       .  S
Fe595       O606   1.987       .  S
Fe596       O599   2.055   1_565  S
Fe596       O603   2.062       .  S
Fe596       O607   2.047       .  S
Fe596       O612   2.063   1_565  S
Fe596       O606   1.973       .  S
Fe597       O615   2.095       .  S
Fe597       O602   2.054       .  S
Fe597       O609   2.046       .  S
Fe597       O598   2.088   1_545  S
Fe597       O606   1.989   1_545  S
O598        C605   1.272       .  A
O599        C613   1.267       .  A
O600        C605   1.269       .  A
O601        C604   1.271       .  A
O602        C614   1.262       .  A
O603        C616   1.265       .  A
C604        O609   1.263   1_565  A
C604        C853   1.433       .  S
C605        C980   1.452       .  S
O607        C610   1.266       .  A
O608        C610   1.271       .  A
C610        C857   1.430       .  S
O611        C616   1.269       .  A
O612        C614   1.265       .  A
C613        O615   1.274       .  A
C613        C885   1.442       .  S
C614        C897   1.432       .  S
C616        C864   1.446       .  S
Fe617       O633   2.084       .  S
Fe617       O623   2.068       .  S
Fe617       O630   2.077       .  S
Fe617       O622   2.086       .  S
Fe617       O628   1.985       .  S
Fe618       O621   2.063       .  S
Fe618       O625   2.047       .  S
Fe618       O629   2.061       .  S
Fe618       O634   2.054       .  S
Fe618       O628   1.973       .  S
Fe619       O637   2.053       .  S
Fe619       O624   2.104       .  S
Fe619       O631   2.095       .  S
Fe619       O620   2.048       .  S
Fe619       O628   1.985       .  S
O620        C627   1.264       .  A
O621        C635   1.265       .  A
O622        C627   1.272       .  A
O623        C626   1.267       .  A
O624        C636   1.276       .  A
O625        C638   1.266       .  A
C626        O631   1.273       .  A
C626       C1164   1.452       .  S
C627        C845   1.437       .  S
O629        C632   1.265       .  A
O630        C632   1.268       .  A
C632        C876   1.442       .  S
O633        C638   1.272       .  A
O634        C636   1.267       .  A
C635        O637   1.261       .  A
C635        C860   1.432       .  S
C636        C908   1.445       .  S
C638        C849   1.432       .  S
Fe639       O655   2.083       .  S
Fe639       O645   2.082       .  S
Fe639       O652   2.079       .  S
Fe639       O644   2.075       .  S
Fe639       O650   1.988       .  S
Fe640       O643   2.054       .  S
Fe640       O647   2.059   1_655  S
Fe640       O651   2.048   1_655  S
Fe640       O656   2.063       .  S
Fe640       O650   1.974   1_655  S
Fe641       O659   2.105       .  S
Fe641       O646   2.056       .  S
Fe641       O653   2.048       .  S
Fe641       O642   2.099       .  S
Fe641       O650   1.988   1_655  S
O642        C649   1.273   1_655  A
O643        C657   1.266       .  A
O644        C649   1.268       .  A
O645        C648   1.272   1_455  A
O646        C658   1.263       .  A
O647        C660   1.264       .  A
C648        O653   1.264       .  A
C648        C844   1.433       .  S
C649        C997   1.458       .  S
O651        C654   1.267       .  A
O652        C654   1.271       .  A
C654        C872   1.431       .  S
O655        C660   1.269       .  A
O656        C658   1.265       .  A
C657        O659   1.276       .  A
C657        C861   1.447       .  S
C658        C852   1.433       .  S
C660        C889   1.445       .  S
Fe661       O677   2.084       .  S
Fe661       O667   2.081       .  S
Fe661       O674   2.078       .  S
Fe661       O666   2.075       .  S
Fe661       O672   1.987       .  S
Fe662       O665   2.056       .  S
Fe662       O669   2.062       .  S
Fe662       O673   2.048       .  S
Fe662       O678   2.062       .  S
Fe662       O672   1.974       .  S
Fe663       O681   2.094   1_655  S
Fe663       O668   2.054   1_655  S
Fe663       O675   2.046       .  S
Fe663       O664   2.088       .  S
Fe663       O672   1.989       .  S
O664        C671   1.271       .  A
O665        C679   1.267   1_655  A
O666        C671   1.269       .  A
O667        C670   1.271       .  A
O668        C680   1.262       .  A
O669        C682   1.265       .  A
C670        O675   1.263       .  A
C670        C841   1.433       .  S
C671       C1057   1.452       .  S
O673        C676   1.266       .  A
O674        C676   1.271       .  A
C676        C825   1.430       .  S
O677        C682   1.269       .  A
O678        C680   1.265   1_655  A
C679        O681   1.274       .  A
C679        C840   1.442       .  S
C680        C836   1.432       .  S
C682        C829   1.446       .  S
Fe683       O699   2.078       .  S
Fe683       O689   2.075       .  S
Fe683       O696   2.083       .  S
Fe683       O688   2.080       .  S
Fe683       O694   1.989       .  S
Fe684       O687   2.063   1_565  S
Fe684       O691   2.048       .  S
Fe684       O695   2.059       .  S
Fe684       O700   2.055   1_565  S
Fe684       O694   1.974       .  S
Fe685       O703   2.056       .  S
Fe685       O690   2.104       .  S
Fe685       O697   2.098   1_545  S
Fe685       O686   2.047       .  S
Fe685       O694   1.988   1_545  S
O686        C693   1.264   1_545  A
O687        C701   1.265       .  A
O688        C693   1.271       .  A
O689        C692   1.268       .  A
O690        C702   1.276       .  A
O691        C704   1.267       .  A
C692        O697   1.273       .  A
C692        C956   1.457       .  S
C693        C865   1.432       .  S
O695        C698   1.264       .  A
O696        C698   1.269       .  A
C698        C813   1.445       .  S
O699        C704   1.271       .  A
O700        C702   1.267       .  A
C701        O703   1.263       .  A
C701        C817   1.433       .  S
C702        C821   1.446       .  S
C704        C833   1.430       .  S
Fe705       O721   2.076       .  S
Fe705       O711   2.088       .  S
Fe705       O718   2.086       .  S
Fe705       O710   2.068       .  S
Fe705       O716   1.985       .  S
Fe706       O709   2.054       .  S
Fe706       O713   2.061       .  S
Fe706       O717   2.046       .  S
Fe706       O722   2.064       .  S
Fe706       O716   1.972       .  S
Fe707       O725   2.104       .  S
Fe707       O712   2.053       .  S
Fe707       O719   2.049       .  S
Fe707       O708   2.096       .  S
Fe707       O716   1.984       .  S
O708        C715   1.273       .  A
O709        C723   1.267       .  A
O710        C715   1.267       .  A
O711        C714   1.272       .  A
O712        C724   1.262       .  A
O713        C726   1.265       .  A
C714        O719   1.264       .  A
C714        C877   1.438       .  S
C715       C1128   1.452       .  S
O717        C720   1.266       .  A
O718        C720   1.273       .  A
C720        C820   1.432       .  S
O721        C726   1.267       .  A
O722        C724   1.265       .  A
C723        O725   1.277       .  A
C723        C809   1.445       .  S
C724        C808   1.432       .  S
C726        C837   1.441       .  S
Fe727       O743   2.083       .  S
Fe727       O733   2.083       .  S
Fe727       O740   2.080       .  S
Fe727       O732   2.074       .  S
Fe727       O738   1.988       .  S
Fe728       O731   2.054   1_545  S
Fe728       O735   2.059       .  S
Fe728       O739   2.048       .  S
Fe728       O744   2.063   1_545  S
Fe728       O738   1.973       .  S
Fe729       O747   2.106       .  S
Fe729       O734   2.054       .  S
Fe729       O741   2.047       .  S
Fe729       O730   2.100   1_565  S
Fe729       O738   1.987   1_565  S
O730        C737   1.273       .  A
O731        C745   1.267       .  A
O732        C737   1.268       .  A
O733        C736   1.272       .  A
O734        C746   1.262       .  A
O735        C748   1.264       .  A
C736        O741   1.264   1_545  A
C736        C856   1.433       .  S
C737       C1080   1.458       .  S
O739        C742   1.267       .  A
O740        C742   1.272       .  A
C742        C804   1.431       .  S
O743        C748   1.269       .  A
O744        C746   1.265       .  A
C745        O747   1.276       .  A
C745        C832   1.447       .  S
C746        C800   1.432       .  S
C748        C812   1.445       .  S
Fe749       O765   2.077       .  S
Fe749       O755   2.074       .  S
Fe749       O762   2.084       .  S
Fe749       O754   2.080       .  S
Fe749       O760   1.988       .  S
Fe750       O753   2.062       .  S
Fe750       O757   2.048   1_655  S
Fe750       O761   2.061   1_655  S
Fe750       O766   2.056       .  S
Fe750       O760   1.973   1_655  S
Fe751       O769   2.055       .  S
Fe751       O756   2.094       .  S
Fe751       O763   2.087       .  S
Fe751       O752   2.045       .  S
Fe751       O760   1.989   1_655  S
O752        C759   1.263       .  A
O753        C767   1.265       .  A
O754        C759   1.271   1_455  A
O755        C758   1.268       .  A
O756        C768   1.274       .  A
O757        C770   1.267       .  A
C758        O763   1.271   1_455  A
C758        C929   1.451       .  S
C759        C896   1.432       .  S
O761        C764   1.265       .  A
O762        C764   1.269       .  A
C764        C824   1.446       .  S
O765        C770   1.271       .  A
O766        C768   1.267       .  A
C767        O769   1.262       .  A
C767        C801   1.432       .  S
C768        C793   1.442       .  S
C770        C805   1.430       .  S
Fe771       O787   2.083       .  S
Fe771       O777   2.068       .  S
Fe771       O784   2.076       .  S
Fe771       O776   2.085       .  S
Fe771       O782   1.985       .  S
Fe772       O775   2.063       .  S
Fe772       O779   2.046       .  S
Fe772       O783   2.061       .  S
Fe772       O788   2.055       .  S
Fe772       O782   1.972       .  S
Fe773       O791   2.053       .  S
Fe773       O778   2.104       .  S
Fe773       O785   2.094       .  S
Fe773       O774   2.048       .  S
Fe773       O782   1.985       .  S
O774        C781   1.264       .  A
O775        C789   1.265       .  A
O776        C781   1.272       .  A
O777        C780   1.267       .  A
O778        C790   1.276       .  A
O779        C792   1.266       .  A
C780        O785   1.273       .  A
C780        C920   1.451       .  S
C781        C848   1.437       .  S
O783        C786   1.265       .  A
O784        C786   1.268       .  A
C786        C796   1.441       .  S
O787        C792   1.272       .  A
O788        C790   1.267       .  A
C789        O791   1.261       .  A
C789        C828   1.432       .  S
C790        C816   1.445       .  S
C792        C797   1.431       .  S
C793        C794   1.210       .  T
C794        C795   1.419   1_545  S
C795        C796   1.210       .  T
C797        C798   1.203       .  T
C798        C799   1.409   1_554  S
C799        C800   1.204       .  T
C801        C802   1.204   1_554  T
C802        C803   1.409       .  S
C803        C804   1.203       .  T
C805        C806   1.203       .  T
C806        C807   1.408   1_554  S
C807        C808   1.203       .  T
C809        C810   1.212       .  T
C810        C811   1.422   1_455  S
C811        C812   1.212       .  T
C813        C814   1.212   1_455  T
C814        C815   1.422       .  S
C815        C816   1.212       .  T
C817        C818   1.205   1_554  T
C818        C819   1.410       .  S
C819        C820   1.204       .  T
C821        C822   1.213       .  T
C822        C823   1.423       .  S
C823        C824   1.213       .  T
C825        C826   1.203       .  T
C826        C827   1.408       .  S
C827        C828   1.203   1_556  T
C829        C830   1.213       .  T
C830        C831   1.424       .  S
C831        C832   1.213       .  T
C833        C834   1.203       .  T
C834        C835   1.408   1_554  S
C835        C836   1.203       .  T
C837        C838   1.210       .  T
C838        C839   1.418   1_545  S
C839        C840   1.210       .  T
C841        C842   1.205       .  T
C842        C843   1.411       .  S
C843        C844   1.205       .  T
C845        C846   1.207       .  T
C846        C847   1.415       .  S
C847        C848   1.207       .  T
C849        C850   1.204       .  T
C850        C851   1.409       .  S
C851        C852   1.204       .  T
C853        C854   1.205       .  T
C854        C855   1.412   1_565  S
C855        C856   1.205       .  T
C857        C858   1.203       .  T
C858        C859   1.408       .  S
C859        C860   1.203       .  T
C861        C862   1.213       .  T
C862        C863   1.424       .  S
C863        C864   1.213       .  T
C865        C866   1.204       .  T
C866        C867   1.410   1_565  S
C867        C868   1.204       .  T
C869        C870   1.204       .  T
C870        C871   1.408       .  S
C871        C872   1.203       .  T
C873        C874   1.210       .  T
C874        C875   1.419   1_455  S
C875        C876   1.210       .  T
C877        C878   1.208       .  T
C878        C879   1.416       .  S
C879        C880   1.208       .  T
C881        C882   1.203       .  T
C882        C883   1.408       .  S
C883        C884   1.203       .  T
C885        C886   1.210       .  T
C886        C887   1.418       .  S
C887        C888   1.210   1_655  T
C889        C890   1.212   1_565  T
C890        C891   1.422       .  S
C891        C892   1.212       .  T
C893        C894   1.204       .  T
C894        C895   1.410       .  S
C895        C896   1.204       .  T
C897        C898   1.204       .  T
C898        C899   1.408       .  S
C899        C900   1.203       .  T
C901        C902   1.204       .  T
C902        C903   1.409       .  S
C903        C904   1.204       .  T
C905        C906   1.212   1_545  T
C906        C907   1.422       .  S
C907        C908   1.212       .  T
C909        C910   1.213       .  T
C910        C911   1.423       .  S
C911        C912   1.213       .  T
C913        C914   1.204       .  T
C914        C915   1.409       .  S
C915        C916   1.204       .  T
C917        C918   1.216       .  T
C918        C919   1.428       .  S
C919        C920   1.216       .  T
C921        C922   1.203       .  T
C922        C923   1.409       .  S
C923        C924   1.204       .  T
C925        C926   1.210       .  T
C926        C927   1.419       .  S
C927        C928   1.210       .  T
C929        C930   1.216       .  T
C930        C931   1.428       .  S
C931        C932   1.216       .  T
C933        C934   1.213       .  T
C934        C935   1.424       .  S
C935        C936   1.213       .  T
C937        C938   1.204       .  T
C938        C939   1.408       .  S
C939        C940   1.203       .  T
C941        C942   1.210       .  T
C942        C943   1.418       .  S
C943        C944   1.210       .  T
C945        C946   1.203       .  T
C946        C947   1.408       .  S
C947        C948   1.203       .  T
C949        C950   1.212       .  T
C950        C951   1.422       .  S
C951        C952   1.212       .  T
C953        C954   1.219       .  T
C954        C955   1.434       .  S
C955        C956   1.219       .  T
C957        C958   1.212       .  T
C958        C959   1.422       .  S
C959        C960   1.212       .  T
C961        C962   1.203       .  T
C962        C963   1.408       .  S
C963        C964   1.203       .  T
C965        C966   1.204       .  T
C966        C967   1.409       .  S
C967        C968   1.204       .  T
C969        C970   1.213       .  T
C970        C971   1.423       .  S
C971        C972   1.213       .  T
C973        C974   1.208       .  T
C974        C975   1.415       .  S
C975        C976   1.207       .  T
C977        C978   1.216       .  T
C978        C979   1.428       .  S
C979        C980   1.216       .  T
C981        C982   1.204       .  T
C982        C983   1.410       .  S
C983        C984   1.204       .  T
C985        C986   1.204       .  T
C986        C987   1.409       .  S
C987        C988   1.204       .  T
C989        C990   1.205       .  T
C990        C991   1.411       .  S
C991        C992   1.205       .  T
C993        C994   1.212       .  T
C994        C995   1.422       .  S
C995        C996   1.212       .  T
C997        C998   1.219       .  T
C998        C999   1.434       .  S
C999       C1000   1.219       .  T
C1001      C1002   1.204       .  T
C1002      C1003   1.410       .  S
C1003      C1004   1.204       .  T
C1005      C1006   1.203       .  T
C1006      C1007   1.408       .  S
C1007      C1008   1.203       .  T
C1009      C1010   1.213       .  T
C1010      C1011   1.424       .  S
C1011      C1012   1.213       .  T
C1013      C1014   1.203       .  T
C1014      C1015   1.408       .  S
C1015      C1016   1.204       .  T
C1017      C1018   1.207       .  T
C1018      C1019   1.415       .  S
C1019      C1020   1.207       .  T
C1021      C1022   1.204       .  T
C1022      C1023   1.409       .  S
C1023      C1024   1.204       .  T
C1025      C1026   1.210       .  T
C1026      C1027   1.419       .  S
C1027      C1028   1.210       .  T
C1029      C1030   1.212       .  T
C1030      C1031   1.422       .  S
C1031      C1032   1.212       .  T
C1033      C1034   1.205       .  T
C1034      C1035   1.411       .  S
C1035      C1036   1.205       .  T
C1037      C1038   1.213       .  T
C1038      C1039   1.424       .  S
C1039      C1040   1.213       .  T
C1041      C1042   1.203       .  T
C1042      C1043   1.408       .  S
C1043      C1044   1.203       .  T
C1045      C1046   1.203       .  T
C1046      C1047   1.408       .  S
C1047      C1048   1.203       .  T
C1049      C1050   1.210       .  T
C1050      C1051   1.419       .  S
C1051      C1052   1.210       .  T
C1053      C1054   1.216       .  T
C1054      C1055   1.429       .  S
C1055      C1056   1.216       .  T
C1057      C1058   1.216       .  T
C1058      C1059   1.428       .  S
C1059      C1060   1.216       .  T
C1061      C1062   1.203       .  T
C1062      C1063   1.408       .  S
C1063      C1064   1.203       .  T
C1065      C1066   1.216       .  T
C1066      C1067   1.428       .  S
C1067      C1068   1.216   1_655  T
C1069      C1070   1.212       .  T
C1070      C1071   1.422       .  S
C1071      C1072   1.212       .  T
C1073      C1074   1.203       .  T
C1074      C1075   1.408       .  S
C1075      C1076   1.204       .  T
C1077      C1078   1.219       .  T
C1078      C1079   1.434       .  S
C1079      C1080   1.219       .  T
C1081      C1082   1.210       .  T
C1082      C1083   1.419       .  S
C1083      C1084   1.210       .  T
C1085      C1086   1.203       .  T
C1086      C1087   1.409       .  S
C1087      C1088   1.204       .  T
C1089      C1090   1.216       .  T
C1090      C1091   1.428   1_545  S
C1091      C1092   1.216       .  T
C1093      C1094   1.212       .  T
C1094      C1095   1.422       .  S
C1095      C1096   1.212       .  T
C1097      C1098   1.204       .  T
C1098      C1099   1.410       .  S
C1099      C1100   1.204       .  T
C1101      C1102   1.213       .  T
C1102      C1103   1.423       .  S
C1103      C1104   1.213       .  T
C1105      C1106   1.219       .  T
C1106      C1107   1.433       .  S
C1107      C1108   1.219       .  T
C1109      C1110   1.203       .  T
C1110      C1111   1.408       .  S
C1111      C1112   1.203       .  T
C1113      C1114   1.203       .  T
C1114      C1115   1.408       .  S
C1115      C1116   1.203       .  T
C1117      C1118   1.213       .  T
C1118      C1119   1.424       .  S
C1119      C1120   1.213       .  T
C1121      C1122   1.210       .  T
C1122      C1123   1.419       .  S
C1123      C1124   1.210       .  T
C1125      C1126   1.216       .  T
C1126      C1127   1.429       .  S
C1127      C1128   1.216       .  T
C1129      C1130   1.208       .  T
C1130      C1131   1.415       .  S
C1131      C1132   1.208       .  T
C1133      C1134   1.216       .  T
C1134      C1135   1.428       .  S
C1135      C1136   1.216   1_655  T
C1137      C1138   1.207       .  T
C1138      C1139   1.415       .  S
C1139      C1140   1.207       .  T
C1141      C1142   1.216       .  T
C1142      C1143   1.428       .  S
C1143      C1144   1.216       .  T
C1145      C1146   1.205       .  T
C1146      C1147   1.411       .  S
C1147      C1148   1.205       .  T
C1149      C1150   1.212       .  T
C1150      C1151   1.422       .  S
C1151      C1152   1.212       .  T
C1153      C1154   1.204       .  T
C1154      C1155   1.409       .  S
C1155      C1156   1.204       .  T
C1157      C1158   1.219       .  T
C1158      C1159   1.434       .  S
C1159      C1160   1.219       .  T
C1161      C1162   1.216       .  T
C1162      C1163   1.428       .  S
C1163      C1164   1.216       .  T
C1165      C1166   1.204       .  T
C1166      C1167   1.411       .  S
C1167      C1168   1.204       .  T
C1169      C1170   1.203       .  T
C1170      C1171   1.408       .  S
C1171      C1172   1.203       .  T
C1173      C1174   1.204       .  T
C1174      C1175   1.408       .  S
C1175      C1176   1.203       .  T
C1177      C1178   1.210       .  T
C1178      C1179   1.419       .  S
C1179      C1180   1.210       .  T
C1181      C1182   1.204       .  T
C1182      C1183   1.410       .  S
C1183      C1184   1.204       .  T
C1185      C1186   1.204       .  T
C1186      C1187   1.409       .  S
C1187      C1188   1.204       .  T
C1189      C1190   1.212       .  T
C1190      C1191   1.422       .  S
C1191      C1192   1.212       .  T
C1193      C1194   1.213       .  T
C1194      C1195   1.423       .  S
C1195      C1196   1.213       .  T
C1197      C1198   1.219       .  T
C1198      C1199   1.433       .  S
C1199      C1200   1.219       .  T
C1201      C1202   1.205       .  T
C1202      C1203   1.411       .  S
C1203      C1204   1.205       .  T
C1205      C1206   1.213       .  T
C1206      C1207   1.424       .  S
C1207      C1208   1.213       .  T
C1209      C1210   1.204       .  T
C1210      C1211   1.408       .  S
C1211      C1212   1.203       .  T
C1213      C1214   1.204       .  T
C1214      C1215   1.408       .  S
C1215      C1216   1.203       .  T
C1217      C1218   1.210       .  T
C1218      C1219   1.419       .  S
C1219      C1220   1.210       .  T
C1221      C1222   1.216       .  T
C1222      C1223   1.428   1_545  S
C1223      C1224   1.216       .  T
