geometry optimzed in LAMMPS
_audit_creation_date              2020-11-30 
_audit_creation_method            'lammps2cif' 
_symmetry_space_group_name_H-M    'P1' 
_symmetry_Int_Tables_number       1 
_symmetry_cell_setting            triclinic 
loop_ 
_symmetry_equiv_pos_as_xyz 
  x,y,z 
_cell_length_a                    40.316668528656734 
_cell_length_b                    40.31491000090397 
_cell_length_c                    34.2919236722197 
_cell_angle_alpha                 90.0007506393564 
_cell_angle_beta                  89.9968783609178 
_cell_angle_gamma                 120.00086570604854 
loop_ 
_atom_site_label 
_atom_site_type_symbol 
_atom_site_fract_x 
_atom_site_fract_y 
_atom_site_fract_z 
_atom_site_charge 
O1          O  0.00639180  0.16791675  0.00150656    -0.86790
O2          O  0.02908860  0.12931538  0.04672132    -0.83840
C3          C  0.00199102  0.09463595  0.04297487     0.96670
O4          O  0.00100302  0.07463732  0.01446795    -0.83870
O5          O  0.33690001  0.05500146  0.93888120    -0.86510
C6          C  0.30801492  0.05671618  0.92715197     1.01200
O7          O  0.30811751  0.08780370  0.92944257    -0.79280
O8          O  0.33000938  0.16435699  0.93834503    -0.79460
C9          C  0.32319436  0.17157889  0.97252690     1.01150
O10         O  0.08030092  0.21148194  0.96372757    -0.86790
O11         O  0.10527043  0.17424371  0.00904412    -0.83850
C12         C  0.11055901  0.14847039  0.02230126     0.96690
O13         O  0.08361753  0.11400814  0.02119595    -0.83880
O14         O  0.08524611  0.10465973  0.94085856    -0.86480
C15         C  0.07692867  0.10369169  0.90534591     1.01160
O16         O  0.04921226  0.10854231  0.89449197    -0.79300
O17         O  0.06947132  0.18220061  0.90679128    -0.79450
C18         C  0.08739879  0.21137754  0.92749688     1.01130
Cr19       Cr  0.05443881  0.16816488  0.00272565     1.93740
Cr20       Cr  0.04336622  0.09031995  0.97833271     1.93210
Cr21       Cr  0.02352593  0.13534605  0.92074763     1.39100
O22         O  0.04091244  0.13203841  0.96705275    -1.24540
O23         O  0.16348916  0.32504467  0.83546642    -0.86790
O24         O  0.20207901  0.30234368  0.79025073    -0.83840
C25         C  0.23675618  0.32944892  0.79398060     0.96670
O26         O  0.25676737  0.33044679  0.82247927    -0.83870
O27         O  0.27643415  0.99454831  0.89806245    -0.86510
C28         C  0.27473339  0.02344062  0.90979694     1.01200
O29         O  0.24365310  0.02335025  0.90751316    -0.79280
O30         O  0.16710505  0.00148670  0.89862029    -0.79460
C31         C  0.15984790  0.00826692  0.86443576     1.01030
O32         O  0.11995375  0.25115516  0.87328282    -0.86790
O33         O  0.15716761  0.22617252  0.82796066    -0.83850
C34         C  0.18292723  0.22088358  0.81466849     0.96690
O35         O  0.21738999  0.24782443  0.81575765    -0.83880
O36         O  0.22677193  0.24620349  0.89609675    -0.86480
C37         C  0.22774473  0.25451557  0.93161362     1.01160
O38         O  0.22290233  0.28224017  0.94247579    -0.79300
O39         O  0.14924919  0.26201590  0.93021068    -0.79450
C40         C  0.12007177  0.24406793  0.90951334     1.01130
Cr41       Cr  0.16324966  0.27700474  0.83426566     1.93740
Cr42       Cr  0.24109895  0.28808309  0.85861892     1.93210
Cr43       Cr  0.19610577  0.30795044  0.91622652     1.39100
O44         O  0.19939028  0.29054522  0.86992159    -1.24540
O45         O  0.16343662  0.16887092  0.33482166    -0.86790
O46         O  0.20197056  0.23018878  0.38003136    -0.83840
C47         C  0.23664670  0.23777320  0.37629603     0.96670
O48         O  0.25665157  0.25676268  0.34778342    -0.83870
O49         O  0.27632746  0.27894594  0.27219701    -0.86510
C50         C  0.27462735  0.24834526  0.26047636     1.01200
O51         O  0.24353892  0.21735870  0.26275347    -0.79280
O52         O  0.16697278  0.16269246  0.27165920    -0.79460
C53         C  0.15975624  0.14866554  0.30584526     1.01150
O54         O  0.11984688  0.19915337  0.29702408    -0.86790
O55         O  0.15704032  0.26139284  0.34234071    -0.83850
C56         C  0.18280609  0.29245270  0.35561726     0.96690
O57         O  0.21727403  0.29999374  0.35448314    -0.83880
O58         O  0.22664573  0.31095731  0.27414440    -0.86480
C59         C  0.22762941  0.30360796  0.23863495     1.01160
O60         O  0.22279628  0.27104299  0.22778827    -0.79300
O61         O  0.14914104  0.21763911  0.24009506    -0.79450
C62         C  0.11995957  0.20636719  0.26079879     1.01130
Cr63       Cr  0.16314805  0.21665064  0.33602583     1.93740
Cr64       Cr  0.24098375  0.28343061  0.31163152     1.93210
Cr65       Cr  0.19599112  0.21855291  0.25405297     1.39100
O66         O  0.19927967  0.23925304  0.30035391    -1.24540
O67         O  0.00631248  0.16882989  0.16880148    -0.86790
O68         O  0.02906615  0.23013746  0.12358834    -0.83840
C69         C  0.00197245  0.23772137  0.12731933     0.96670
O70         O  0.00095730  0.25671321  0.15583101    -0.83870
O71         O  0.33682424  0.27893205  0.23141734    -0.86510
C72         C  0.30792312  0.24834086  0.24314616     1.01200
O73         O  0.30801502  0.21734768  0.24087239    -0.79280
O74         O  0.32988071  0.16265963  0.23195841    -0.79460
C75         C  0.32309261  0.14863016  0.19777149     1.01150
O76         O  0.08018425  0.19913984  0.20660332    -0.86790
O77         O  0.10521123  0.26136215  0.16128109    -0.83850
C78         C  0.11049901  0.29241362  0.14798818     0.96690
O79         O  0.08356654  0.29994681  0.14911234    -0.83880
O80         O  0.08517782  0.31093511  0.22945310    -0.86480
C81         C  0.07685499  0.30359763  0.26496707     1.01160
O82         O  0.04912808  0.27103035  0.27582556    -0.79300
O83         O  0.06934216  0.21759363  0.26353377    -0.79450
C84         C  0.08727538  0.20635017  0.24282972     1.01130
Cr85       Cr  0.05436689  0.21661707  0.16759832     1.93740
Cr86       Cr  0.04330382  0.28339543  0.19197488     1.93210
Cr87       Cr  0.02341614  0.21852595  0.24956899     1.39100
O88         O  0.04083049  0.23921918  0.20326489    -1.24540
O89         O  0.17011834  0.00504271  0.16812738    -0.86790
O90         O  0.23141131  0.02776256  0.21333801    -0.83840
C91         C  0.23899046  0.00066352  0.20960682     0.96670
O92         O  0.25799601  0.99965621  0.18110448    -0.83870
O93         O  0.28024541  0.33555431  0.10552973    -0.86510
C94         C  0.24965670  0.30665206  0.09380837     1.01200
O95         O  0.21866343  0.30673717  0.09608967    -0.79280
O96         O  0.16396602  0.32857729  0.10497604    -0.79460
C97         C  0.14992796  0.32180257  0.13916115     1.01150
O98         O  0.20046707  0.07892510  0.13031010    -0.86790
O99         O  0.26266553  0.10392356  0.17564191    -0.83850
C100        C  0.29370534  0.10920323  0.18895098     0.96690
O101        O  0.30122705  0.08226258  0.18784781    -0.83880
O102        O  0.31224306  0.08390136  0.10750625    -0.86480
C103        C  0.30491284  0.07558731  0.07198981     1.01160
O104        O  0.27234965  0.04785847  0.06112420    -0.79300
O105        O  0.21889523  0.06805221  0.07338010    -0.79450
C106        C  0.20767130  0.08600551  0.09407925     1.01130
Cr107      Cr  0.21791561  0.05308744  0.16932715     1.93740
Cr108      Cr  0.28469205  0.04201643  0.14497506     1.93210
Cr109      Cr  0.21983611  0.02213025  0.08736934     1.39100
O110        O  0.24052034  0.03954698  0.13367205    -1.24540
O111        O  0.17019130  0.16219420  0.00210609    -0.86790
O112        O  0.23150436  0.20078197  0.95689201    -0.83840
C113        C  0.23909293  0.23546321  0.96063685     0.96670
O114        O  0.25809034  0.25545591  0.98915216    -0.83870
O115        O  0.28026663  0.27508004  0.06474781    -0.86510
C116        C  0.24966417  0.27336755  0.07647193     1.01200
O117        O  0.21868072  0.24227858  0.07418902    -0.79280
O118        O  0.16402022  0.16571715  0.06527144    -0.79460
C119        C  0.14998931  0.15850798  0.03108843     1.01150
O120        O  0.20050343  0.11860436  0.03987427    -0.86790
O121        O  0.26273151  0.15583847  0.99456610    -0.83850
C122        C  0.29379933  0.18161372  0.98131773     0.96690
O123        O  0.30132597  0.21607753  0.98243538    -0.83880
O124        O  0.31228256  0.22541208  0.06277339    -0.86480
C125        C  0.30492699  0.22637477  0.09828593     1.01160
O126        O  0.27236118  0.22153149  0.10913640    -0.79300
O127        O  0.21896890  0.14787807  0.09681270    -0.79450
C128        C  0.20770455  0.11870200  0.07610264     1.01130
Cr129      Cr  0.21798266  0.16192882  0.00088513     1.93740
Cr130      Cr  0.28475576  0.23976350  0.02529604     1.93210
Cr131      Cr  0.21987821  0.19473243  0.08287214     1.39100
O132        O  0.24057959  0.19804761  0.03656628    -1.24540
O133        O  0.16917784  0.16123817  0.83483829    -0.86790
O134        O  0.13063153  0.09991513  0.88004476    -0.83840
C135        C  0.09595655  0.09233540  0.87631500     0.96670
O136        O  0.07595119  0.07334695  0.84780292    -0.83870
O137        O  0.05627985  0.05118149  0.77220471    -0.86510
C138        C  0.05799033  0.08178360  0.76047033     1.01200
O139        O  0.08907989  0.11276874  0.76275763    -0.79280
O140        O  0.16565590  0.16742605  0.77167658    -0.79460
C141        C  0.17287459  0.18145096  0.80586359     1.01150
O142        O  0.21276287  0.13095036  0.79703199    -0.86790
O143        O  0.17556009  0.06871062  0.84234221    -0.83850
C144        C  0.14979478  0.03764782  0.85561373     0.96690
O145        O  0.11532426  0.03010132  0.85447643    -0.83880
O146        O  0.10594677  0.01915267  0.77413485    -0.86480
C147        C  0.10496952  0.02651080  0.73862665     1.01160
O148        O  0.10981397  0.05908185  0.72778841    -0.79300
O149        O  0.18347184  0.11246875  0.74010496    -0.79450
C150        C  0.21265253  0.12373913  0.76080595     1.01130
Cr151      Cr  0.16945654  0.11345354  0.83603480     1.93740
Cr152      Cr  0.09161678  0.04668065  0.81163576     1.93210
Cr153      Cr  0.13662598  0.11156622  0.75406277     1.39100
O154        O  0.13332633  0.09085795  0.80036206    -1.24540
O155        O  0.32628864  0.16129665  0.66876995    -0.86790
O156        O  0.30353426  0.09999101  0.62355748    -0.83840
C157        C  0.33063207  0.09241268  0.62727759     0.96670
O158        O  0.33165248  0.07341784  0.65578365    -0.83870
O159        O  0.99580906  0.05120017  0.73137338    -0.86510
C160        C  0.02470485  0.08179039  0.74311251     1.01200
O161        O  0.02461366  0.11278353  0.74082983    -0.79280
O162        O  0.00273847  0.16746903  0.73192260    -0.79460
C163        C  0.00951360  0.18149923  0.69773465     1.01150
O164        O  0.25242478  0.13097559  0.70660038    -0.86790
O165        O  0.22739826  0.06876027  0.66127362    -0.83850
C166        C  0.22211048  0.03771265  0.64797079     0.96690
O167        O  0.24903922  0.03017291  0.64909572    -0.83880
O168        O  0.24745448  0.01918331  0.72944144    -0.86480
C169        C  0.25578441  0.02652321  0.76495402     1.01160
O170        O  0.28350844  0.05909546  0.77580402    -0.79300
O171        O  0.26328234  0.11252706  0.76352407    -0.79450
C172        C  0.24533981  0.12376389  0.74282808     1.01130
Cr173      Cr  0.27823950  0.11350520  0.66758153     1.93740
Cr174      Cr  0.28931655  0.04673029  0.69194426     1.93210
Cr175      Cr  0.30921021  0.11160073  0.74954029     1.39100
O176        O  0.29178672  0.09090478  0.70323986    -1.24540
O177        O  0.32624030  0.16224144  0.50147290    -0.86790
O178        O  0.30353757  0.20084460  0.54668649    -0.83840
C179        C  0.33063226  0.23552527  0.54293410     0.96670
O180        O  0.33161883  0.25551793  0.51442305    -0.83870
O181        O  0.99571165  0.27513366  0.43883663    -0.86510
C182        C  0.02460055  0.27342034  0.42711566     1.01200
O183        O  0.02449638  0.24233174  0.42940090    -0.79280
O184        O  0.00260658  0.16578041  0.43830784    -0.79460
C185        C  0.00942990  0.15856942  0.47248902     1.01150
O186        O  0.25232854  0.11865900  0.46371233    -0.86790
O187        O  0.22735325  0.15590271  0.50902181    -0.83850
C188        C  0.22206178  0.18167787  0.52227073     0.96690
O189        O  0.24900497  0.21613886  0.52116707    -0.83880
O190        O  0.24736531  0.22546448  0.44083472    -0.86480
C191        C  0.25567919  0.22642640  0.40532178     1.01160
O192        O  0.28340015  0.22158456  0.39446319    -0.79300
O193        O  0.26314504  0.14793124  0.40677153    -0.79450
C194        C  0.24522687  0.11875573  0.42748245     1.01130
Cr195      Cr  0.27818817  0.16198489  0.50270053     1.93740
Cr196      Cr  0.28925087  0.23982109  0.47829660     1.93210
Cr197      Cr  0.30908965  0.19478829  0.42071485     1.39100
O198        O  0.29170832  0.19810346  0.46702189    -1.24540
O199        O  0.16914985  0.00507902  0.33546658    -0.86790
O200        O  0.13056528  0.02777540  0.29024795    -0.83840
C201        C  0.09588743  0.00067270  0.29398500     0.96670
O202        O  0.07587576  0.99968030  0.32248229    -0.83870
O203        O  0.05620060  0.33559898  0.39805363    -0.86510
C204        C  0.05789093  0.30669966  0.40977953     1.01200
O205        O  0.08896890  0.30678547  0.40750227    -0.79280
O206        O  0.16550426  0.32862380  0.39861980    -0.79460
C207        C  0.17276506  0.32184210  0.36443674     1.01150
O208        O  0.21268220  0.07897225  0.37327403    -0.86790
O209        O  0.17547460  0.10395282  0.32794446    -0.83850
C210        C  0.14971469  0.10923683  0.31464633     0.96690
O211        O  0.11525490  0.08229228  0.31573051    -0.83880
O212        O  0.10587544  0.08393997  0.39606823    -0.86480
C213        C  0.10489535  0.07563132  0.43158668     1.01160
O214        O  0.10973220  0.04790543  0.44245750    -0.79300
O215        O  0.18338250  0.06810523  0.43020401    -0.79450
C216        C  0.21256008  0.08605793  0.40950448     1.01130
Cr217      Cr  0.16939206  0.05312012  0.33425802     1.93740
Cr218      Cr  0.09154388  0.04205107  0.35860459     1.93210
Cr219      Cr  0.13651993  0.02217823  0.41621898     1.39100
O220        O  0.13324804  0.03958490  0.36991238    -1.24540
O221        O  0.16248135  0.32509114  0.66809436    -0.86790
O222        O  0.10118269  0.30235941  0.71330603    -0.83840
C223        C  0.09360724  0.32946205  0.70958808     0.96670
O224        O  0.07460806  0.33048143  0.68108778    -0.83870
O225        O  0.05237143  0.99460869  0.60551021    -0.86510
C226        C  0.08296128  0.02351075  0.59378628     1.01200
O227        O  0.11395439  0.02342545  0.59606804    -0.79280
O228        O  0.16864892  0.00157501  0.60494567    -0.79460
C229        C  0.18268082  0.00833388  0.63913257     1.01150
O230        O  0.13213924  0.25122615  0.63025154    -0.86790
O231        O  0.06993323  0.22621120  0.67558287    -0.83850
C232        C  0.03889524  0.22092896  0.68890352     0.96690
O233        O  0.03137065  0.24786854  0.68780486    -0.83880
O234        O  0.02037061  0.24626086  0.60746452    -0.86480
C235        C  0.02770574  0.25458039  0.57194914     1.01160
O236        O  0.06026894  0.28231397  0.56108602    -0.79300
O237        O  0.11371883  0.26211192  0.57332639    -0.79450
C238        C  0.12493955  0.24415349  0.59401992     1.01130
Cr239      Cr  0.11468408  0.27704912  0.66928107     1.93740
Cr240      Cr  0.04791592  0.28813296  0.64494417     1.93210
Cr241      Cr  0.11277988  0.30803260  0.58733350     1.39100
O242        O  0.09208761  0.29060348  0.63363405    -1.24540
O243        O  0.16243405  0.16795548  0.50206223    -0.86790
O244        O  0.10112762  0.12936642  0.45684727    -0.83840
C245        C  0.09354024  0.09468652  0.46060059     0.96670
O246        O  0.07453616  0.07469635  0.48911574    -0.83870
O247        O  0.05235302  0.05507670  0.56471114    -0.86510
C248        C  0.08295461  0.05679322  0.57644184     1.01200
O249        O  0.11393729  0.08788335  0.57415638    -0.79280
O250        O  0.16859357  0.16444537  0.56523023    -0.79460
C251        C  0.18263019  0.17164469  0.53104848     1.01150
O252        O  0.13211646  0.21155397  0.53981515    -0.86790
O253        O  0.06989624  0.17431394  0.49450757    -0.83850
C254        C  0.03882570  0.14853598  0.48127089     0.96690
O255        O  0.03129895  0.11407231  0.48239084    -0.83880
O256        O  0.02032880  0.10473800  0.56272886    -0.86480
C257        C  0.02768105  0.10377398  0.59824141     1.01160
O258        O  0.06024928  0.10862698  0.60909093    -0.79300
O259        O  0.11363425  0.18228065  0.59675365    -0.79450
C260        C  0.12490532  0.21145673  0.57604178     1.01130
Cr261      Cr  0.11464318  0.16822362  0.50083331     1.93740
Cr262      Cr  0.04786474  0.09038929  0.52525413     1.93210
Cr263      Cr  0.11273373  0.13542847  0.58282697     1.39100
O264        O  0.09203916  0.13210774  0.53651951    -1.24540
O265        O  0.00639180  0.50125008  0.00150656    -0.86790
O266        O  0.02908860  0.46264871  0.04672132    -0.83840
C267        C  0.00199102  0.42796928  0.04297487     0.96670
O268        O  0.00100302  0.40797065  0.01446796    -0.83870
O269        O  0.33690002  0.38833480  0.93888120    -0.86510
C270        C  0.30801493  0.39004951  0.92715197     1.01200
O271        O  0.30811751  0.42113703  0.92944257    -0.79280
O272        O  0.33000938  0.49769032  0.93834503    -0.79460
C273        C  0.32319436  0.50491223  0.97252690     1.01150
O274        O  0.08030091  0.54481527  0.96372756    -0.86790
O275        O  0.10527043  0.50757704  0.00904412    -0.83850
C276        C  0.11055901  0.48180372  0.02230126     0.96690
O277        O  0.08361754  0.44734148  0.02119595    -0.83880
O278        O  0.08524611  0.43799306  0.94085856    -0.86480
C279        C  0.07692867  0.43702502  0.90534591     1.01160
O280        O  0.04921226  0.44187564  0.89449197    -0.79300
O281        O  0.06947132  0.51553394  0.90679127    -0.79450
C282        C  0.08739879  0.54471087  0.92749688     1.01130
Cr283      Cr  0.05443881  0.50149821  0.00272565     1.93740
Cr284      Cr  0.04336622  0.42365328  0.97833271     1.93210
Cr285      Cr  0.02352593  0.46867938  0.92074763     1.39100
O286        O  0.04091244  0.46537174  0.96705275    -1.24540
O287        O  0.16348916  0.65837800  0.83546642    -0.86790
O288        O  0.20207900  0.63567701  0.79025073    -0.83840
C289        C  0.23675617  0.66278225  0.79398060     0.96670
O290        O  0.25676737  0.66378012  0.82247927    -0.83870
O291        O  0.27643415  0.32788165  0.89806245    -0.86510
C292        C  0.27473339  0.35677396  0.90979694     1.01200
O293        O  0.24365311  0.35668359  0.90751315    -0.79280
O294        O  0.16710506  0.33482004  0.89862029    -0.79460
C295        C  0.15984790  0.34160026  0.86443576     1.01030
O296        O  0.11995374  0.58448849  0.87328283    -0.86790
O297        O  0.15716760  0.55950585  0.82796066    -0.83850
C298        C  0.18292722  0.55421691  0.81466849     0.96690
O299        O  0.21738998  0.58115776  0.81575765    -0.83880
O300        O  0.22677193  0.57953682  0.89609675    -0.86480
C301        C  0.22774473  0.58784890  0.93161362     1.01160
O302        O  0.22290233  0.61557350  0.94247579    -0.79300
O303        O  0.14924919  0.59534924  0.93021068    -0.79450
C304        C  0.12007176  0.57740126  0.90951334     1.01130
Cr305      Cr  0.16324966  0.61033807  0.83426566     1.93740
Cr306      Cr  0.24109895  0.62141642  0.85861892     1.93210
Cr307      Cr  0.19610577  0.64128377  0.91622652     1.39100
O308        O  0.19939028  0.62387855  0.86992159    -1.24540
O309        O  0.16343662  0.50220425  0.33482165    -0.86790
O310        O  0.20197055  0.56352211  0.38003136    -0.83840
C311        C  0.23664669  0.57110653  0.37629604     0.96670
O312        O  0.25665156  0.59009601  0.34778342    -0.83870
O313        O  0.27632746  0.61227927  0.27219701    -0.86510
C314        C  0.27462734  0.58167859  0.26047636     1.01200
O315        O  0.24353892  0.55069203  0.26275347    -0.79280
O316        O  0.16697278  0.49602579  0.27165920    -0.79460
C317        C  0.15975624  0.48199887  0.30584525     1.01150
O318        O  0.11984688  0.53248670  0.29702408    -0.86790
O319        O  0.15704031  0.59472617  0.34234071    -0.83850
C320        C  0.18280608  0.62578603  0.35561725     0.96690
O321        O  0.21727402  0.63332707  0.35448314    -0.83880
O322        O  0.22664573  0.64429064  0.27414440    -0.86480
C323        C  0.22762941  0.63694129  0.23863495     1.01160
O324        O  0.22279627  0.60437632  0.22778827    -0.79300
O325        O  0.14914103  0.55097244  0.24009506    -0.79450
C326        C  0.11995957  0.53970052  0.26079879     1.01130
Cr327      Cr  0.16314804  0.54998397  0.33602583     1.93740
Cr328      Cr  0.24098374  0.61676394  0.31163152     1.93210
Cr329      Cr  0.19599111  0.55188624  0.25405296     1.39100
O330        O  0.19927967  0.57258637  0.30035391    -1.24540
O331        O  0.00631247  0.50216323  0.16880148    -0.86790
O332        O  0.02906615  0.56347080  0.12358833    -0.83840
C333        C  0.00197245  0.57105471  0.12731932     0.96670
O334        O  0.00095730  0.59004654  0.15583100    -0.83870
O335        O  0.33682424  0.61226539  0.23141733    -0.86510
C336        C  0.30792312  0.58167419  0.24314615     1.01200
O337        O  0.30801502  0.55068102  0.24087239    -0.79280
O338        O  0.32988070  0.49599296  0.23195841    -0.79460
C339        C  0.32309260  0.48196349  0.19777149     1.01150
O340        O  0.08018425  0.53247317  0.20660332    -0.86790
O341        O  0.10521122  0.59469549  0.16128109    -0.83850
C342        C  0.11049901  0.62574695  0.14798818     0.96690
O343        O  0.08356654  0.63328014  0.14911234    -0.83880
O344        O  0.08517781  0.64426845  0.22945310    -0.86480
C345        C  0.07685498  0.63693097  0.26496707     1.01160
O346        O  0.04912807  0.60436369  0.27582555    -0.79300
O347        O  0.06934216  0.55092697  0.26353377    -0.79450
C348        C  0.08727537  0.53968351  0.24282972     1.01130
Cr349      Cr  0.05436689  0.54995040  0.16759831     1.93740
Cr350      Cr  0.04330382  0.61672876  0.19197487     1.93210
Cr351      Cr  0.02341614  0.55185929  0.24956899     1.39100
O352        O  0.04083049  0.57255252  0.20326489    -1.24540
O353        O  0.17011834  0.33837604  0.16812738    -0.86790
O354        O  0.23141131  0.36109589  0.21333801    -0.83840
C355        C  0.23899046  0.33399686  0.20960682     0.96670
O356        O  0.25799601  0.33298955  0.18110448    -0.83870
O357        O  0.28024541  0.66888765  0.10552974    -0.86510
C358        C  0.24965670  0.63998539  0.09380837     1.01200
O359        O  0.21866343  0.64007050  0.09608967    -0.79280
O360        O  0.16396602  0.66191062  0.10497604    -0.79460
C361        C  0.14992796  0.65513591  0.13916115     1.01150
O362        O  0.20046707  0.41225843  0.13031010    -0.86790
O363        O  0.26266553  0.43725689  0.17564191    -0.83850
C364        C  0.29370534  0.44253657  0.18895098     0.96690
O365        O  0.30122705  0.41559592  0.18784781    -0.83880
O366        O  0.31224305  0.41723470  0.10750625    -0.86480
C367        C  0.30491284  0.40892064  0.07198981     1.01160
O368        O  0.27234965  0.38119181  0.06112419    -0.79300
O369        O  0.21889523  0.40138554  0.07338010    -0.79450
C370        C  0.20767130  0.41933884  0.09407925     1.01130
Cr371      Cr  0.21791561  0.38642077  0.16932714     1.93740
Cr372      Cr  0.28469205  0.37534976  0.14497506     1.93210
Cr373      Cr  0.21983611  0.35546358  0.08736934     1.39100
O374        O  0.24052034  0.37288032  0.13367205    -1.24540
O375        O  0.17019130  0.49552754  0.00210609    -0.86790
O376        O  0.23150436  0.53411531  0.95689201    -0.83840
C377        C  0.23909293  0.56879655  0.96063685     0.96670
O378        O  0.25809034  0.58878924  0.98915216    -0.83870
O379        O  0.28026663  0.60841338  0.06474781    -0.86510
C380        C  0.24966417  0.60670088  0.07647193     1.01200
O381        O  0.21868072  0.57561192  0.07418902    -0.79280
O382        O  0.16402022  0.49905048  0.06527144    -0.79460
C383        C  0.14998931  0.49184131  0.03108842     1.01150
O384        O  0.20050343  0.45193769  0.03987426    -0.86790
O385        O  0.26273151  0.48917181  0.99456610    -0.83850
C386        C  0.29379933  0.51494705  0.98131773     0.96690
O387        O  0.30132597  0.54941087  0.98243538    -0.83880
O388        O  0.31228256  0.55874542  0.06277339    -0.86480
C389        C  0.30492699  0.55970811  0.09828593     1.01160
O390        O  0.27236118  0.55486482  0.10913640    -0.79300
O391        O  0.21896890  0.48121140  0.09681270    -0.79450
C392        C  0.20770455  0.45203533  0.07610263     1.01130
Cr393      Cr  0.21798266  0.49526216  0.00088513     1.93740
Cr394      Cr  0.28475576  0.57309684  0.02529604     1.93210
Cr395      Cr  0.21987821  0.52806577  0.08287214     1.39100
O396        O  0.24057959  0.53138095  0.03656627    -1.24540
O397        O  0.16917783  0.49457150  0.83483829    -0.86790
O398        O  0.13063153  0.43324846  0.88004476    -0.83840
C399        C  0.09595655  0.42566873  0.87631500     0.96670
O400        O  0.07595119  0.40668028  0.84780292    -0.83870
O401        O  0.05627985  0.38451482  0.77220470    -0.86510
C402        C  0.05799032  0.41511693  0.76047033     1.01200
O403        O  0.08907988  0.44610207  0.76275763    -0.79280
O404        O  0.16565590  0.50075939  0.77167658    -0.79460
C405        C  0.17287459  0.51478429  0.80586359     1.01150
O406        O  0.21276287  0.46428370  0.79703198    -0.86790
O407        O  0.17556009  0.40204396  0.84234220    -0.83850
C408        C  0.14979479  0.37098116  0.85561373     0.96690
O409        O  0.11532427  0.36343465  0.85447643    -0.83880
O410        O  0.10594677  0.35248600  0.77413485    -0.86480
C411        C  0.10496952  0.35984414  0.73862665     1.01160
O412        O  0.10981397  0.39241519  0.72778841    -0.79300
O413        O  0.18347184  0.44580209  0.74010496    -0.79450
C414        C  0.21265253  0.45707246  0.76080595     1.01130
Cr415      Cr  0.16945654  0.44678687  0.83603480     1.93740
Cr416      Cr  0.09161678  0.38001398  0.81163576     1.93210
Cr417      Cr  0.13662598  0.44489956  0.75406277     1.39100
O418        O  0.13332633  0.42419128  0.80036206    -1.24540
O419        O  0.32628864  0.49462998  0.66876995    -0.86790
O420        O  0.30353426  0.43332434  0.62355748    -0.83840
C421        C  0.33063207  0.42574602  0.62727759     0.96670
O422        O  0.33165249  0.40675118  0.65578365    -0.83870
O423        O  0.99580906  0.38453350  0.73137338    -0.86510
C424        C  0.02470485  0.41512372  0.74311251     1.01200
O425        O  0.02461366  0.44611686  0.74082983    -0.79280
O426        O  0.00273847  0.50080236  0.73192260    -0.79460
C427        C  0.00951360  0.51483256  0.69773465     1.01150
O428        O  0.25242478  0.46430893  0.70660038    -0.86790
O429        O  0.22739827  0.40209361  0.66127362    -0.83850
C430        C  0.22211048  0.37104598  0.64797079     0.96690
O431        O  0.24903922  0.36350625  0.64909572    -0.83880
O432        O  0.24745448  0.35251665  0.72944144    -0.86480
C433        C  0.25578442  0.35985655  0.76495402     1.01160
O434        O  0.28350844  0.39242880  0.77580402    -0.79300
O435        O  0.26328234  0.44586039  0.76352407    -0.79450
C436        C  0.24533981  0.45709723  0.74282808     1.01130
Cr437      Cr  0.27823951  0.44683854  0.66758153     1.93740
Cr438      Cr  0.28931656  0.38006363  0.69194426     1.93210
Cr439      Cr  0.30921022  0.44493407  0.74954030     1.39100
O440        O  0.29178672  0.42423811  0.70323986    -1.24540
O441        O  0.32624030  0.49557477  0.50147290    -0.86790
O442        O  0.30353757  0.53417794  0.54668650    -0.83840
C443        C  0.33063226  0.56885861  0.54293410     0.96670
O444        O  0.33161883  0.58885126  0.51442306    -0.83870
O445        O  0.99571164  0.60846700  0.43883663    -0.86510
C446        C  0.02460055  0.60675367  0.42711566     1.01200
O447        O  0.02449638  0.57566508  0.42940090    -0.79280
O448        O  0.00260658  0.49911374  0.43830784    -0.79460
C449        C  0.00942990  0.49190275  0.47248902     1.01150
O450        O  0.25232854  0.45199234  0.46371233    -0.86790
O451        O  0.22735325  0.48923604  0.50902181    -0.83850
C452        C  0.22206178  0.51501121  0.52227073     0.96690
O453        O  0.24900497  0.54947219  0.52116707    -0.83880
O454        O  0.24736531  0.55879782  0.44083472    -0.86480
C455        C  0.25567918  0.55975973  0.40532178     1.01160
O456        O  0.28340014  0.55491790  0.39446320    -0.79300
O457        O  0.26314504  0.48126457  0.40677153    -0.79450
C458        C  0.24522687  0.45208907  0.42748246     1.01130
Cr459      Cr  0.27818817  0.49531823  0.50270053     1.93740
Cr460      Cr  0.28925087  0.57315442  0.47829660     1.93210
Cr461      Cr  0.30908965  0.52812162  0.42071486     1.39100
O462        O  0.29170832  0.53143680  0.46702190    -1.24540
O463        O  0.16914985  0.33841236  0.33546658    -0.86790
O464        O  0.13056529  0.36110873  0.29024795    -0.83840
C465        C  0.09588744  0.33400603  0.29398500     0.96670
O466        O  0.07587576  0.33301363  0.32248230    -0.83870
O467        O  0.05620060  0.66893231  0.39805363    -0.86510
C468        C  0.05789092  0.64003300  0.40977952     1.01200
O469        O  0.08896890  0.64011880  0.40750226    -0.79280
O470        O  0.16550426  0.66195713  0.39861980    -0.79460
C471        C  0.17276506  0.65517543  0.36443674     1.01150
O472        O  0.21268220  0.41230558  0.37327403    -0.86790
O473        O  0.17547460  0.43728615  0.32794446    -0.83850
C474        C  0.14971469  0.44257016  0.31464633     0.96690
O475        O  0.11525490  0.41562561  0.31573051    -0.83880
O476        O  0.10587544  0.41727330  0.39606823    -0.86480
C477        C  0.10489535  0.40896466  0.43158668     1.01160
O478        O  0.10973220  0.38123877  0.44245750    -0.79300
O479        O  0.18338250  0.40143857  0.43020402    -0.79450
C480        C  0.21256008  0.41939127  0.40950449     1.01130
Cr481      Cr  0.16939206  0.38645346  0.33425802     1.93740
Cr482      Cr  0.09154388  0.37538440  0.35860459     1.93210
Cr483      Cr  0.13651993  0.35551156  0.41621898     1.39100
O484        O  0.13324804  0.37291823  0.36991238    -1.24540
O485        O  0.16248134  0.65842447  0.66809436    -0.86790
O486        O  0.10118268  0.63569274  0.71330604    -0.83840
C487        C  0.09360724  0.66279538  0.70958808     0.96670
O488        O  0.07460805  0.66381476  0.68108778    -0.83870
O489        O  0.05237143  0.32794203  0.60551020    -0.86510
C490        C  0.08296128  0.35684409  0.59378628     1.01200
O491        O  0.11395440  0.35675878  0.59606804    -0.79280
O492        O  0.16864893  0.33490835  0.60494567    -0.79460
C493        C  0.18268083  0.34166721  0.63913257     1.01150
O494        O  0.13213923  0.58455948  0.63025154    -0.86790
O495        O  0.06993323  0.55954453  0.67558287    -0.83850
C496        C  0.03889524  0.55426229  0.68890352     0.96690
O497        O  0.03137065  0.58120187  0.68780486    -0.83880
O498        O  0.02037060  0.57959419  0.60746452    -0.86480
C499        C  0.02770573  0.58791373  0.57194914     1.01160
O500        O  0.06026893  0.61564731  0.56108602    -0.79300
O501        O  0.11371882  0.59544525  0.57332639    -0.79450
C502        C  0.12493954  0.57748682  0.59401992     1.01130
Cr503      Cr  0.11468408  0.61038245  0.66928107     1.93740
Cr504      Cr  0.04791591  0.62146630  0.64494417     1.93210
Cr505      Cr  0.11277987  0.64136593  0.58733350     1.39100
O506        O  0.09208761  0.62393681  0.63363405    -1.24540
O507        O  0.16243404  0.50128881  0.50206223    -0.86790
O508        O  0.10112762  0.46269975  0.45684727    -0.83840
C509        C  0.09354024  0.42801985  0.46060059     0.96670
O510        O  0.07453616  0.40802968  0.48911574    -0.83870
O511        O  0.05235302  0.38841003  0.56471114    -0.86510
C512        C  0.08295461  0.39012656  0.57644184     1.01200
O513        O  0.11393729  0.42121668  0.57415638    -0.79280
O514        O  0.16859357  0.49777871  0.56523023    -0.79460
C515        C  0.18263019  0.50497803  0.53104848     1.01150
O516        O  0.13211646  0.54488731  0.53981515    -0.86790
O517        O  0.06989624  0.50764727  0.49450757    -0.83850
C518        C  0.03882569  0.48186932  0.48127089     0.96690
O519        O  0.03129895  0.44740564  0.48239084    -0.83880
O520        O  0.02032880  0.43807133  0.56272886    -0.86480
C521        C  0.02768104  0.43710731  0.59824141     1.01160
O522        O  0.06024927  0.44196031  0.60909093    -0.79300
O523        O  0.11363424  0.51561398  0.59675365    -0.79450
C524        C  0.12490531  0.54479006  0.57604178     1.01130
Cr525      Cr  0.11464318  0.50155696  0.50083331     1.93740
Cr526      Cr  0.04786474  0.42372263  0.52525413     1.93210
Cr527      Cr  0.11273373  0.46876180  0.58282697     1.39100
O528        O  0.09203916  0.46544107  0.53651951    -1.24540
O529        O  0.00639180  0.83458341  0.00150656    -0.86790
O530        O  0.02908860  0.79598204  0.04672132    -0.83840
C531        C  0.00199103  0.76130261  0.04297487     0.96670
O532        O  0.00100302  0.74130398  0.01446795    -0.83870
O533        O  0.33690001  0.72166813  0.93888120    -0.86510
C534        C  0.30801492  0.72338284  0.92715197     1.01200
O535        O  0.30811751  0.75447036  0.92944257    -0.79280
O536        O  0.33000938  0.83102366  0.93834503    -0.79460
C537        C  0.32319436  0.83824556  0.97252690     1.01150
O538        O  0.08030091  0.87814860  0.96372756    -0.86790
O539        O  0.10527043  0.84091037  0.00904412    -0.83850
C540        C  0.11055901  0.81513705  0.02230126     0.96690
O541        O  0.08361754  0.78067481  0.02119595    -0.83880
O542        O  0.08524611  0.77132639  0.94085856    -0.86480
C543        C  0.07692867  0.77035835  0.90534591     1.01160
O544        O  0.04921226  0.77520897  0.89449196    -0.79300
O545        O  0.06947132  0.84886727  0.90679127    -0.79450
C546        C  0.08739879  0.87804420  0.92749688     1.01130
Cr547      Cr  0.05443881  0.83483154  0.00272565     1.93740
Cr548      Cr  0.04336622  0.75698662  0.97833271     1.93210
Cr549      Cr  0.02352593  0.80201271  0.92074763     1.39100
O550        O  0.04091244  0.79870507  0.96705275    -1.24540
O551        O  0.16348915  0.99171133  0.83546642    -0.86790
O552        O  0.20207900  0.96901034  0.79025073    -0.83840
C553        C  0.23675617  0.99611559  0.79398060     0.96670
O554        O  0.25676736  0.99711346  0.82247927    -0.83870
O555        O  0.27643415  0.66121498  0.89806245    -0.86510
C556        C  0.27473339  0.69010729  0.90979694     1.01200
O557        O  0.24365310  0.69001692  0.90751316    -0.79280
O558        O  0.16710505  0.66815337  0.89862029    -0.79460
C559        C  0.15984790  0.67493359  0.86443576     1.01030
O560        O  0.11995374  0.91782182  0.87328282    -0.86790
O561        O  0.15716760  0.89283919  0.82796066    -0.83850
C562        C  0.18292723  0.88755024  0.81466848     0.96690
O563        O  0.21738999  0.91449110  0.81575764    -0.83880
O564        O  0.22677193  0.91287015  0.89609675    -0.86480
C565        C  0.22774473  0.92118223  0.93161362     1.01160
O566        O  0.22290233  0.94890683  0.94247579    -0.79300
O567        O  0.14924919  0.92868257  0.93021068    -0.79450
C568        C  0.12007176  0.91073459  0.90951334     1.01130
Cr569      Cr  0.16324966  0.94367140  0.83426566     1.93740
Cr570      Cr  0.24109895  0.95474975  0.85861892     1.93210
Cr571      Cr  0.19610577  0.97461710  0.91622652     1.39100
O572        O  0.19939028  0.95721188  0.86992159    -1.24540
O573        O  0.16343662  0.83553758  0.33482165    -0.86790
O574        O  0.20197055  0.89685545  0.38003136    -0.83840
C575        C  0.23664669  0.90443986  0.37629603     0.96670
O576        O  0.25665156  0.92342935  0.34778342    -0.83870
O577        O  0.27632746  0.94561260  0.27219701    -0.86510
C578        C  0.27462734  0.91501193  0.26047636     1.01200
O579        O  0.24353892  0.88402536  0.26275347    -0.79280
O580        O  0.16697278  0.82935912  0.27165920    -0.79460
C581        C  0.15975624  0.81533220  0.30584525     1.01150
O582        O  0.11984688  0.86582003  0.29702408    -0.86790
O583        O  0.15704031  0.92805950  0.34234071    -0.83850
C584        C  0.18280608  0.95911937  0.35561725     0.96690
O585        O  0.21727402  0.96666040  0.35448314    -0.83880
O586        O  0.22664573  0.97762397  0.27414440    -0.86480
C587        C  0.22762941  0.97027462  0.23863495     1.01160
O588        O  0.22279627  0.93770965  0.22778827    -0.79300
O589        O  0.14914103  0.88430578  0.24009506    -0.79450
C590        C  0.11995957  0.87303385  0.26079879     1.01130
Cr591      Cr  0.16314804  0.88331730  0.33602583     1.93740
Cr592      Cr  0.24098374  0.95009727  0.31163152     1.93210
Cr593      Cr  0.19599111  0.88521958  0.25405296     1.39100
O594        O  0.19927967  0.90591970  0.30035391    -1.24540
O595        O  0.00631247  0.83549657  0.16880148    -0.86790
O596        O  0.02906615  0.89680413  0.12358833    -0.83840
C597        C  0.00197245  0.90438805  0.12731932     0.96670
O598        O  0.00095730  0.92337988  0.15583100    -0.83870
O599        O  0.33682423  0.94559872  0.23141733    -0.86510
C600        C  0.30792311  0.91500752  0.24314615     1.01200
O601        O  0.30801502  0.88401435  0.24087239    -0.79280
O602        O  0.32988071  0.82932630  0.23195841    -0.79460
C603        C  0.32309260  0.81529683  0.19777149     1.01150
O604        O  0.08018425  0.86580650  0.20660332    -0.86790
O605        O  0.10521123  0.92802882  0.16128109    -0.83850
C606        C  0.11049902  0.95908029  0.14798818     0.96690
O607        O  0.08356654  0.96661348  0.14911234    -0.83880
O608        O  0.08517781  0.97760178  0.22945310    -0.86480
C609        C  0.07685498  0.97026430  0.26496707     1.01160
O610        O  0.04912807  0.93769702  0.27582555    -0.79300
O611        O  0.06934216  0.88426031  0.26353377    -0.79450
C612        C  0.08727537  0.87301684  0.24282972     1.01130
Cr613      Cr  0.05436689  0.88328374  0.16759831     1.93740
Cr614      Cr  0.04330382  0.95006210  0.19197487     1.93210
Cr615      Cr  0.02341614  0.88519262  0.24956899     1.39100
O616        O  0.04083049  0.90588585  0.20326489    -1.24540
O617        O  0.17011834  0.67170938  0.16812738    -0.86790
O618        O  0.23141130  0.69442922  0.21333801    -0.83840
C619        C  0.23899046  0.66733019  0.20960682     0.96670
O620        O  0.25799601  0.66632288  0.18110448    -0.83870
O621        O  0.28024541  0.00222098  0.10552973    -0.86510
C622        C  0.24965670  0.97331872  0.09380837     1.01200
O623        O  0.21866343  0.97340384  0.09608967    -0.79280
O624        O  0.16396602  0.99524396  0.10497604    -0.79460
C625        C  0.14992796  0.98846924  0.13916115     1.01150
O626        O  0.20046707  0.74559177  0.13031010    -0.86790
O627        O  0.26266553  0.77059023  0.17564191    -0.83850
C628        C  0.29370534  0.77586990  0.18895098     0.96690
O629        O  0.30122705  0.74892925  0.18784781    -0.83880
O630        O  0.31224306  0.75056803  0.10750625    -0.86480
C631        C  0.30491284  0.74225398  0.07198981     1.01160
O632        O  0.27234965  0.71452514  0.06112420    -0.79300
O633        O  0.21889523  0.73471888  0.07338010    -0.79450
C634        C  0.20767130  0.75267218  0.09407925     1.01130
Cr635      Cr  0.21791561  0.71975410  0.16932715     1.93740
Cr636      Cr  0.28469205  0.70868310  0.14497506     1.93210
Cr637      Cr  0.21983611  0.68879691  0.08736934     1.39100
O638        O  0.24052034  0.70621365  0.13367205    -1.24540
O639        O  0.17019130  0.82886087  0.00210609    -0.86790
O640        O  0.23150436  0.86744864  0.95689201    -0.83840
C641        C  0.23909293  0.90212988  0.96063685     0.96670
O642        O  0.25809034  0.92212257  0.98915216    -0.83870
O643        O  0.28026663  0.94174671  0.06474781    -0.86510
C644        C  0.24966417  0.94003422  0.07647193     1.01200
O645        O  0.21868072  0.90894525  0.07418902    -0.79280
O646        O  0.16402022  0.83238381  0.06527144    -0.79460
C647        C  0.14998931  0.82517464  0.03108842     1.01150
O648        O  0.20050343  0.78527102  0.03987426    -0.86790
O649        O  0.26273151  0.82250514  0.99456610    -0.83850
C650        C  0.29379933  0.84828039  0.98131773     0.96690
O651        O  0.30132597  0.88274420  0.98243537    -0.83880
O652        O  0.31228256  0.89207875  0.06277339    -0.86480
C653        C  0.30492699  0.89304144  0.09828593     1.01160
O654        O  0.27236118  0.88819815  0.10913639    -0.79300
O655        O  0.21896890  0.81454474  0.09681270    -0.79450
C656        C  0.20770455  0.78536866  0.07610263     1.01130
Cr657      Cr  0.21798266  0.82859549  0.00088513     1.93740
Cr658      Cr  0.28475576  0.90643017  0.02529604     1.93210
Cr659      Cr  0.21987821  0.86139910  0.08287214     1.39100
O660        O  0.24057959  0.86471428  0.03656627    -1.24540
O661        O  0.16917784  0.82790484  0.83483829    -0.86790
O662        O  0.13063153  0.76658180  0.88004475    -0.83840
C663        C  0.09595655  0.75900206  0.87631500     0.96670
O664        O  0.07595119  0.74001362  0.84780292    -0.83870
O665        O  0.05627985  0.71784816  0.77220470    -0.86510
C666        C  0.05799033  0.74845026  0.76047033     1.01200
O667        O  0.08907989  0.77943540  0.76275763    -0.79280
O668        O  0.16565590  0.83409272  0.77167657    -0.79460
C669        C  0.17287459  0.84811763  0.80586359     1.01150
O670        O  0.21276288  0.79761703  0.79703198    -0.86790
O671        O  0.17556009  0.73537729  0.84234220    -0.83850
C672        C  0.14979479  0.70431449  0.85561373     0.96690
O673        O  0.11532427  0.69676799  0.85447643    -0.83880
O674        O  0.10594678  0.68581934  0.77413485    -0.86480
C675        C  0.10496952  0.69317747  0.73862665     1.01160
O676        O  0.10981397  0.72574852  0.72778841    -0.79300
O677        O  0.18347184  0.77913542  0.74010496    -0.79450
C678        C  0.21265253  0.79040580  0.76080595     1.01130
Cr679      Cr  0.16945655  0.78012021  0.83603479     1.93740
Cr680      Cr  0.09161678  0.71334732  0.81163576     1.93210
Cr681      Cr  0.13662598  0.77823289  0.75406277     1.39100
O682        O  0.13332633  0.75752462  0.80036205    -1.24540
O683        O  0.32628864  0.82796331  0.66876994    -0.86790
O684        O  0.30353426  0.76665767  0.62355748    -0.83840
C685        C  0.33063207  0.75907935  0.62727759     0.96670
O686        O  0.33165248  0.74008450  0.65578365    -0.83870
O687        O  0.99580906  0.71786683  0.73137338    -0.86510
C688        C  0.02470485  0.74845706  0.74311251     1.01200
O689        O  0.02461366  0.77945020  0.74082983    -0.79280
O690        O  0.00273847  0.83413569  0.73192260    -0.79460
C691        C  0.00951360  0.84816589  0.69773465     1.01150
O692        O  0.25242479  0.79764226  0.70660037    -0.86790
O693        O  0.22739827  0.73542693  0.66127362    -0.83850
C694        C  0.22211048  0.70437931  0.64797079     0.96690
O695        O  0.24903922  0.69683957  0.64909572    -0.83880
O696        O  0.24745448  0.68584997  0.72944144    -0.86480
C697        C  0.25578442  0.69318987  0.76495401     1.01160
O698        O  0.28350844  0.72576213  0.77580402    -0.79300
O699        O  0.26328234  0.77919372  0.76352407    -0.79450
C700        C  0.24533981  0.79043056  0.74282808     1.01130
Cr701      Cr  0.27823950  0.78017186  0.66758153     1.93740
Cr702      Cr  0.28931655  0.71339696  0.69194426     1.93210
Cr703      Cr  0.30921021  0.77826740  0.74954029     1.39100
O704        O  0.29178672  0.75757144  0.70323986    -1.24540
O705        O  0.32624030  0.82890810  0.50147290    -0.86790
O706        O  0.30353757  0.86751127  0.54668649    -0.83840
C707        C  0.33063226  0.90219194  0.54293409     0.96670
O708        O  0.33161883  0.92218459  0.51442305    -0.83870
O709        O  0.99571164  0.94180033  0.43883663    -0.86510
C710        C  0.02460055  0.94008701  0.42711566     1.01200
O711        O  0.02449638  0.90899841  0.42940090    -0.79280
O712        O  0.00260658  0.83244708  0.43830784    -0.79460
C713        C  0.00942990  0.82523608  0.47248902     1.01150
O714        O  0.25232853  0.78532567  0.46371233    -0.86790
O715        O  0.22735325  0.82256938  0.50902181    -0.83850
C716        C  0.22206178  0.84834454  0.52227073     0.96690
O717        O  0.24900497  0.88280552  0.52116707    -0.83880
O718        O  0.24736530  0.89213115  0.44083472    -0.86480
C719        C  0.25567918  0.89309306  0.40532178     1.01160
O720        O  0.28340014  0.88825123  0.39446319    -0.79300
O721        O  0.26314504  0.81459790  0.40677153    -0.79450
C722        C  0.24522687  0.78542240  0.42748245     1.01130
Cr723      Cr  0.27818817  0.82865156  0.50270053     1.93740
Cr724      Cr  0.28925087  0.90648775  0.47829660     1.93210
Cr725      Cr  0.30908965  0.86145495  0.42071485     1.39100
O726        O  0.29170832  0.86477013  0.46702189    -1.24540
O727        O  0.16914985  0.67174569  0.33546658    -0.86790
O728        O  0.13056528  0.69444207  0.29024795    -0.83840
C729        C  0.09588743  0.66733936  0.29398500     0.96670
O730        O  0.07587576  0.66634696  0.32248229    -0.83870
O731        O  0.05620060  0.00226564  0.39805363    -0.86510
C732        C  0.05789093  0.97336633  0.40977952     1.01200
O733        O  0.08896890  0.97345214  0.40750226    -0.79280
O734        O  0.16550426  0.99529047  0.39861980    -0.79460
C735        C  0.17276506  0.98850876  0.36443674     1.01150
O736        O  0.21268220  0.74563891  0.37327403    -0.86790
O737        O  0.17547460  0.77061948  0.32794445    -0.83850
C738        C  0.14971469  0.77590349  0.31464633     0.96690
O739        O  0.11525490  0.74895894  0.31573050    -0.83880
O740        O  0.10587544  0.75060664  0.39606823    -0.86480
C741        C  0.10489535  0.74229799  0.43158668     1.01160
O742        O  0.10973220  0.71457210  0.44245750    -0.79300
O743        O  0.18338250  0.73477190  0.43020401    -0.79450
C744        C  0.21256008  0.75272460  0.40950448     1.01130
Cr745      Cr  0.16939206  0.71978679  0.33425802     1.93740
Cr746      Cr  0.09154388  0.70871773  0.35860459     1.93210
Cr747      Cr  0.13651993  0.68884490  0.41621897     1.39100
O748        O  0.13324804  0.70625157  0.36991238    -1.24540
O749        O  0.16248134  0.99175781  0.66809436    -0.86790
O750        O  0.10118268  0.96902608  0.71330604    -0.83840
C751        C  0.09360724  0.99612871  0.70958808     0.96670
O752        O  0.07460805  0.99714809  0.68108778    -0.83870
O753        O  0.05237143  0.66127536  0.60551021    -0.86510
C754        C  0.08296128  0.69017742  0.59378628     1.01200
O755        O  0.11395440  0.69009212  0.59606804    -0.79280
O756        O  0.16864892  0.66824168  0.60494567    -0.79460
C757        C  0.18268082  0.67500054  0.63913257     1.01150
O758        O  0.13213923  0.91789282  0.63025154    -0.86790
O759        O  0.06993323  0.89287787  0.67558286    -0.83850
C760        C  0.03889524  0.88759562  0.68890352     0.96690
O761        O  0.03137065  0.91453519  0.68780486    -0.83880
O762        O  0.02037060  0.91292752  0.60746452    -0.86480
C763        C  0.02770573  0.92124706  0.57194914     1.01160
O764        O  0.06026893  0.94898064  0.56108602    -0.79300
O765        O  0.11371882  0.92877858  0.57332639    -0.79450
C766        C  0.12493954  0.91082016  0.59401992     1.01130
Cr767      Cr  0.11468407  0.94371578  0.66928107     1.93740
Cr768      Cr  0.04791591  0.95479963  0.64494417     1.93210
Cr769      Cr  0.11277987  0.97469926  0.58733350     1.39100
O770        O  0.09208760  0.95727015  0.63363405    -1.24540
O771        O  0.16243405  0.83462214  0.50206223    -0.86790
O772        O  0.10112762  0.79603308  0.45684727    -0.83840
C773        C  0.09354024  0.76135318  0.46060059     0.96670
O774        O  0.07453616  0.74136301  0.48911574    -0.83870
O775        O  0.05235302  0.72174337  0.56471114    -0.86510
C776        C  0.08295462  0.72345989  0.57644184     1.01200
O777        O  0.11393729  0.75455002  0.57415638    -0.79280
O778        O  0.16859357  0.83111204  0.56523023    -0.79460
C779        C  0.18263019  0.83831136  0.53104848     1.01150
O780        O  0.13211646  0.87822064  0.53981515    -0.86790
O781        O  0.06989624  0.84098061  0.49450757    -0.83850
C782        C  0.03882569  0.81520265  0.48127089     0.96690
O783        O  0.03129895  0.78073898  0.48239084    -0.83880
O784        O  0.02032880  0.77140466  0.56272886    -0.86480
C785        C  0.02768105  0.77044064  0.59824141     1.01160
O786        O  0.06024928  0.77529364  0.60909093    -0.79300
O787        O  0.11363424  0.84894731  0.59675365    -0.79450
C788        C  0.12490531  0.87812339  0.57604178     1.01130
Cr789      Cr  0.11464318  0.83489029  0.50083331     1.93740
Cr790      Cr  0.04786474  0.75705596  0.52525412     1.93210
Cr791      Cr  0.11273373  0.80209513  0.58282697     1.39100
O792        O  0.09203916  0.79877441  0.53651950    -1.24540
O793        O  0.33972513  0.16791674  0.00150656    -0.86790
O794        O  0.36242194  0.12931537  0.04672132    -0.83840
C795        C  0.33532436  0.09463594  0.04297487     0.96670
O796        O  0.33433635  0.07463731  0.01446795    -0.83870
O797        O  0.67023334  0.05500146  0.93888120    -0.86510
C798        C  0.64134826  0.05671618  0.92715197     1.01200
O799        O  0.64145084  0.08780370  0.92944257    -0.79280
O800        O  0.66334271  0.16435699  0.93834503    -0.79460
C801        C  0.65652769  0.17157889  0.97252690     1.01150
O802        O  0.41363425  0.21148193  0.96372756    -0.86790
O803        O  0.43860376  0.17424371  0.00904412    -0.83850
C804        C  0.44389235  0.14847039  0.02230126     0.96690
O805        O  0.41695087  0.11400814  0.02119595    -0.83880
O806        O  0.41857944  0.10465973  0.94085856    -0.86480
C807        C  0.41026200  0.10369168  0.90534591     1.01160
O808        O  0.38254559  0.10854230  0.89449196    -0.79300
O809        O  0.40280465  0.18220060  0.90679127    -0.79450
C810        C  0.42073212  0.21137754  0.92749688     1.01130
Cr811      Cr  0.38777215  0.16816488  0.00272565     1.93740
Cr812      Cr  0.37669955  0.09031995  0.97833271     1.93210
Cr813      Cr  0.35685926  0.13534605  0.92074763     1.39100
O814        O  0.37424578  0.13203840  0.96705275    -1.24540
O815        O  0.49682249  0.32504466  0.83546642    -0.86790
O816        O  0.53541234  0.30234368  0.79025073    -0.83840
C817        C  0.57008951  0.32944892  0.79398060     0.96670
O818        O  0.59010070  0.33044679  0.82247927    -0.83870
O819        O  0.60976748  0.99454831  0.89806245    -0.86510
C820        C  0.60806672  0.02344062  0.90979694     1.01200
O821        O  0.57698643  0.02335025  0.90751315    -0.79280
O822        O  0.50043839  0.00148670  0.89862029    -0.79460
C823        C  0.49318123  0.00826692  0.86443576     1.01030
O824        O  0.45328707  0.25115516  0.87328283    -0.86790
O825        O  0.49050094  0.22617252  0.82796066    -0.83850
C826        C  0.51626056  0.22088358  0.81466849     0.96690
O827        O  0.55072332  0.24782443  0.81575765    -0.83880
O828        O  0.56010526  0.24620349  0.89609675    -0.86480
C829        C  0.56107806  0.25451557  0.93161362     1.01160
O830        O  0.55623566  0.28224017  0.94247579    -0.79300
O831        O  0.48258252  0.26201590  0.93021068    -0.79450
C832        C  0.45340510  0.24406793  0.90951334     1.01130
Cr833      Cr  0.49658299  0.27700474  0.83426566     1.93740
Cr834      Cr  0.57443228  0.28808308  0.85861892     1.93210
Cr835      Cr  0.52943910  0.30795044  0.91622652     1.39100
O836        O  0.53272361  0.29054522  0.86992159    -1.24540
O837        O  0.49676996  0.16887092  0.33482166    -0.86790
O838        O  0.53530389  0.23018878  0.38003136    -0.83840
C839        C  0.56998003  0.23777320  0.37629604     0.96670
O840        O  0.58998490  0.25676268  0.34778342    -0.83870
O841        O  0.60966079  0.27894594  0.27219702    -0.86510
C842        C  0.60796068  0.24834526  0.26047636     1.01200
O843        O  0.57687226  0.21735870  0.26275347    -0.79280
O844        O  0.50030611  0.16269246  0.27165920    -0.79460
C845        C  0.49308958  0.14866554  0.30584526     1.01150
O846        O  0.45318022  0.19915337  0.29702408    -0.86790
O847        O  0.49037365  0.26139284  0.34234071    -0.83850
C848        C  0.51613942  0.29245270  0.35561726     0.96690
O849        O  0.55060736  0.29999373  0.35448315    -0.83880
O850        O  0.55997907  0.31095731  0.27414440    -0.86480
C851        C  0.56096275  0.30360796  0.23863495     1.01160
O852        O  0.55612961  0.27104299  0.22778827    -0.79300
O853        O  0.48247437  0.21763912  0.24009506    -0.79450
C854        C  0.45329291  0.20636719  0.26079879     1.01130
Cr855      Cr  0.49648138  0.21665063  0.33602583     1.93740
Cr856      Cr  0.57431708  0.28343061  0.31163152     1.93210
Cr857      Cr  0.52932445  0.21855291  0.25405297     1.39100
O858        O  0.53261301  0.23925304  0.30035391    -1.24540
O859        O  0.33964581  0.16882990  0.16880148    -0.86790
O860        O  0.36239949  0.23013746  0.12358833    -0.83840
C861        C  0.33530579  0.23772138  0.12731933     0.96670
O862        O  0.33429063  0.25671321  0.15583101    -0.83870
O863        O  0.67015757  0.27893205  0.23141734    -0.86510
C864        C  0.64125645  0.24834085  0.24314616     1.01200
O865        O  0.64134835  0.21734768  0.24087239    -0.79280
O866        O  0.66321403  0.16265963  0.23195841    -0.79460
C867        C  0.65642594  0.14863016  0.19777149     1.01150
O868        O  0.41351759  0.19913984  0.20660332    -0.86790
O869        O  0.43854456  0.26136215  0.16128109    -0.83850
C870        C  0.44383235  0.29241362  0.14798818     0.96690
O871        O  0.41689987  0.29994681  0.14911234    -0.83880
O872        O  0.41851115  0.31093511  0.22945310    -0.86480
C873        C  0.41018832  0.30359763  0.26496707     1.01160
O874        O  0.38246141  0.27103035  0.27582555    -0.79300
O875        O  0.40267549  0.21759364  0.26353377    -0.79450
C876        C  0.42060871  0.20635017  0.24282972     1.01130
Cr877      Cr  0.38770022  0.21661707  0.16759831     1.93740
Cr878      Cr  0.37663715  0.28339543  0.19197487     1.93210
Cr879      Cr  0.35674947  0.21852595  0.24956899     1.39100
O880        O  0.37416383  0.23921918  0.20326489    -1.24540
O881        O  0.50345167  0.00504271  0.16812738    -0.86790
O882        O  0.56474464  0.02776255  0.21333801    -0.83840
C883        C  0.57232379  0.00066352  0.20960682     0.96670
O884        O  0.59132934  0.99965621  0.18110448    -0.83870
O885        O  0.61357875  0.33555431  0.10552974    -0.86510
C886        C  0.58299004  0.30665206  0.09380837     1.01200
O887        O  0.55199677  0.30673717  0.09608967    -0.79280
O888        O  0.49729935  0.32857729  0.10497604    -0.79460
C889        C  0.48326129  0.32180257  0.13916115     1.01150
O890        O  0.53380041  0.07892510  0.13031010    -0.86790
O891        O  0.59599887  0.10392356  0.17564191    -0.83850
C892        C  0.62703867  0.10920323  0.18895098     0.96690
O893        O  0.63456038  0.08226258  0.18784781    -0.83880
O894        O  0.64557639  0.08390136  0.10750625    -0.86480
C895        C  0.63824617  0.07558731  0.07198981     1.01160
O896        O  0.60568298  0.04785847  0.06112419    -0.79300
O897        O  0.55222856  0.06805221  0.07338010    -0.79450
C898        C  0.54100463  0.08600551  0.09407925     1.01130
Cr899      Cr  0.55124894  0.05308743  0.16932714     1.93740
Cr900      Cr  0.61802538  0.04201642  0.14497506     1.93210
Cr901      Cr  0.55316944  0.02213025  0.08736933     1.39100
O902        O  0.57385367  0.03954698  0.13367205    -1.24540
O903        O  0.50352463  0.16219421  0.00210609    -0.86790
O904        O  0.56483769  0.20078198  0.95689201    -0.83840
C905        C  0.57242627  0.23546321  0.96063685     0.96670
O906        O  0.59142368  0.25545591  0.98915216    -0.83870
O907        O  0.61359997  0.27508004  0.06474781    -0.86510
C908        C  0.58299751  0.27336755  0.07647193     1.01200
O909        O  0.55201406  0.24227858  0.07418902    -0.79280
O910        O  0.49735355  0.16571715  0.06527144    -0.79460
C911        C  0.48332264  0.15850798  0.03108842     1.01150
O912        O  0.53383676  0.11860436  0.03987426    -0.86790
O913        O  0.59606485  0.15583847  0.99456610    -0.83850
C914        C  0.62713266  0.18161372  0.98131773     0.96690
O915        O  0.63465930  0.21607753  0.98243538    -0.83880
O916        O  0.64561589  0.22541208  0.06277339    -0.86480
C917        C  0.63826033  0.22637477  0.09828593     1.01160
O918        O  0.60569451  0.22153148  0.10913640    -0.79300
O919        O  0.55230223  0.14787807  0.09681270    -0.79450
C920        C  0.54103788  0.11870200  0.07610263     1.01130
Cr921      Cr  0.55131600  0.16192882  0.00088513     1.93740
Cr922      Cr  0.61808909  0.23976350  0.02529604     1.93210
Cr923      Cr  0.55321154  0.19473243  0.08287214     1.39100
O924        O  0.57391293  0.19804761  0.03656627    -1.24540
O925        O  0.50251117  0.16123817  0.83483829    -0.86790
O926        O  0.46396486  0.09991513  0.88004475    -0.83840
C927        C  0.42928988  0.09233539  0.87631500     0.96670
O928        O  0.40928452  0.07334695  0.84780292    -0.83870
O929        O  0.38961318  0.05118149  0.77220470    -0.86510
C930        C  0.39132366  0.08178359  0.76047033     1.01200
O931        O  0.42241322  0.11276874  0.76275763    -0.79280
O932        O  0.49898923  0.16742605  0.77167658    -0.79460
C933        C  0.50620792  0.18145096  0.80586359     1.01150
O934        O  0.54609621  0.13095036  0.79703198    -0.86790
O935        O  0.50889342  0.06871062  0.84234220    -0.83850
C936        C  0.48312812  0.03764782  0.85561373     0.96690
O937        O  0.44865760  0.03010132  0.85447643    -0.83880
O938        O  0.43928011  0.01915267  0.77413485    -0.86480
C939        C  0.43830286  0.02651081  0.73862665     1.01160
O940        O  0.44314731  0.05908185  0.72778841    -0.79300
O941        O  0.51680517  0.11246875  0.74010496    -0.79450
C942        C  0.54598587  0.12373913  0.76080595     1.01130
Cr943      Cr  0.50278988  0.11345354  0.83603479     1.93740
Cr944      Cr  0.42495011  0.04668065  0.81163576     1.93210
Cr945      Cr  0.46995931  0.11156622  0.75406277     1.39100
O946        O  0.46665966  0.09085795  0.80036206    -1.24540
O947        O  0.65962197  0.16129665  0.66876995    -0.86790
O948        O  0.63686759  0.09999101  0.62355748    -0.83840
C949        C  0.66396541  0.09241268  0.62727759     0.96670
O950        O  0.66498582  0.07341784  0.65578365    -0.83870
O951        O  0.32914239  0.05120016  0.73137338    -0.86510
C952        C  0.35803818  0.08179039  0.74311251     1.01200
O953        O  0.35794699  0.11278353  0.74082983    -0.79280
O954        O  0.33607180  0.16746903  0.73192260    -0.79460
C955        C  0.34284693  0.18149923  0.69773465     1.01150
O956        O  0.58575812  0.13097559  0.70660038    -0.86790
O957        O  0.56073160  0.06876027  0.66127362    -0.83850
C958        C  0.55544381  0.03771265  0.64797079     0.96690
O959        O  0.58237256  0.03017291  0.64909572    -0.83880
O960        O  0.58078781  0.01918331  0.72944144    -0.86480
C961        C  0.58911775  0.02652321  0.76495401     1.01160
O962        O  0.61684177  0.05909546  0.77580402    -0.79300
O963        O  0.59661567  0.11252705  0.76352407    -0.79450
C964        C  0.57867314  0.12376389  0.74282808     1.01130
Cr965      Cr  0.61157284  0.11350520  0.66758153     1.93740
Cr966      Cr  0.62264989  0.04673029  0.69194426     1.93210
Cr967      Cr  0.64254355  0.11160073  0.74954029     1.39100
O968        O  0.62512005  0.09090477  0.70323986    -1.24540
O969        O  0.65957363  0.16224143  0.50147290    -0.86790
O970        O  0.63687090  0.20084460  0.54668650    -0.83840
C971        C  0.66396559  0.23552527  0.54293410     0.96670
O972        O  0.66495216  0.25551793  0.51442306    -0.83870
O973        O  0.32904498  0.27513366  0.43883663    -0.86510
C974        C  0.35793388  0.27342034  0.42711566     1.01200
O975        O  0.35782971  0.24233174  0.42940090    -0.79280
O976        O  0.33593991  0.16578041  0.43830784    -0.79460
C977        C  0.34276323  0.15856942  0.47248902     1.01150
O978        O  0.58566187  0.11865900  0.46371233    -0.86790
O979        O  0.56068659  0.15590271  0.50902181    -0.83850
C980        C  0.55539512  0.18167787  0.52227073     0.96690
O981        O  0.58233830  0.21613886  0.52116707    -0.83880
O982        O  0.58069864  0.22546448  0.44083472    -0.86480
C983        C  0.58901252  0.22642639  0.40532179     1.01160
O984        O  0.61673348  0.22158456  0.39446320    -0.79300
O985        O  0.59647838  0.14793123  0.40677153    -0.79450
C986        C  0.57856020  0.11875573  0.42748245     1.01130
Cr987      Cr  0.61152150  0.16198489  0.50270053     1.93740
Cr988      Cr  0.62258421  0.23982109  0.47829660     1.93210
Cr989      Cr  0.64242299  0.19478829  0.42071486     1.39100
O990        O  0.62504165  0.19810346  0.46702190    -1.24540
O991        O  0.50248318  0.00507902  0.33546658    -0.86790
O992        O  0.46389862  0.02777540  0.29024795    -0.83840
C993        C  0.42922077  0.00067270  0.29398500     0.96670
O994        O  0.40920909  0.99968030  0.32248229    -0.83870
O995        O  0.38953393  0.33559897  0.39805363    -0.86510
C996        C  0.39122426  0.30669966  0.40977952     1.01200
O997        O  0.42230223  0.30678547  0.40750226    -0.79280
O998        O  0.49883760  0.32862380  0.39861980    -0.79460
C999        C  0.50609840  0.32184210  0.36443674     1.01150
O1000       O  0.54601553  0.07897225  0.37327403    -0.86790
O1001       O  0.50880793  0.10395282  0.32794446    -0.83850
C1002       C  0.48304802  0.10923683  0.31464633     0.96690
O1003       O  0.44858823  0.08229228  0.31573051    -0.83880
O1004       O  0.43920877  0.08393997  0.39606823    -0.86480
C1005       C  0.43822869  0.07563132  0.43158668     1.01160
O1006       O  0.44306553  0.04790543  0.44245750    -0.79300
O1007       O  0.51671583  0.06810523  0.43020401    -0.79450
C1008       C  0.54589341  0.08605793  0.40950448     1.01130
Cr1009     Cr  0.50272539  0.05312012  0.33425802     1.93740
Cr1010     Cr  0.42487722  0.04205107  0.35860459     1.93210
Cr1011     Cr  0.46985326  0.02217823  0.41621898     1.39100
O1012       O  0.46658137  0.03958490  0.36991238    -1.24540
O1013       O  0.49581468  0.32509114  0.66809436    -0.86790
O1014       O  0.43451602  0.30235941  0.71330604    -0.83840
C1015       C  0.42694057  0.32946205  0.70958808     0.96670
O1016       O  0.40794138  0.33048143  0.68108778    -0.83870
O1017       O  0.38570477  0.99460869  0.60551020    -0.86510
C1018       C  0.41629462  0.02351075  0.59378628     1.01200
O1019       O  0.44728773  0.02342545  0.59606804    -0.79280
O1020       O  0.50198226  0.00157502  0.60494567    -0.79460
C1021       C  0.51601416  0.00833387  0.63913257     1.01150
O1022       O  0.46547257  0.25122615  0.63025154    -0.86790
O1023       O  0.40326656  0.22621120  0.67558287    -0.83850
C1024       C  0.37222857  0.22092896  0.68890352     0.96690
O1025       O  0.36470398  0.24786853  0.68780486    -0.83880
O1026       O  0.35370394  0.24626086  0.60746452    -0.86480
C1027       C  0.36103907  0.25458039  0.57194914     1.01160
O1028       O  0.39360227  0.28231397  0.56108602    -0.79300
O1029       O  0.44705216  0.26211192  0.57332640    -0.79450
C1030       C  0.45827287  0.24415349  0.59401993     1.01130
Cr1031     Cr  0.44801741  0.27704912  0.66928107     1.93740
Cr1032     Cr  0.38124925  0.28813296  0.64494417     1.93210
Cr1033     Cr  0.44611321  0.30803259  0.58733350     1.39100
O1034       O  0.42542094  0.29060348  0.63363406    -1.24540
O1035       O  0.49576738  0.16795548  0.50206223    -0.86790
O1036       O  0.43446095  0.12936642  0.45684727    -0.83840
C1037       C  0.42687357  0.09468652  0.46060059     0.96670
O1038       O  0.40786950  0.07469635  0.48911574    -0.83870
O1039       O  0.38568635  0.05507670  0.56471114    -0.86510
C1040       C  0.41628795  0.05679322  0.57644184     1.01200
O1041       O  0.44727062  0.08788335  0.57415638    -0.79280
O1042       O  0.50192690  0.16444537  0.56523023    -0.79460
C1043       C  0.51596352  0.17164469  0.53104848     1.01150
O1044       O  0.46544979  0.21155397  0.53981515    -0.86790
O1045       O  0.40322958  0.17431394  0.49450757    -0.83850
C1046       C  0.37215903  0.14853598  0.48127089     0.96690
O1047       O  0.36463228  0.11407231  0.48239084    -0.83880
O1048       O  0.35366213  0.10473799  0.56272886    -0.86480
C1049       C  0.36101438  0.10377398  0.59824141     1.01160
O1050       O  0.39358261  0.10862698  0.60909093    -0.79300
O1051       O  0.44696758  0.18228065  0.59675365    -0.79450
C1052       C  0.45823865  0.21145673  0.57604178     1.01130
Cr1053     Cr  0.44797652  0.16822362  0.50083331     1.93740
Cr1054     Cr  0.38119807  0.09038929  0.52525413     1.93210
Cr1055     Cr  0.44606706  0.13542847  0.58282697     1.39100
O1056       O  0.42537249  0.13210774  0.53651951    -1.24540
O1057       O  0.33972514  0.50125008  0.00150656    -0.86790
O1058       O  0.36242194  0.46264871  0.04672132    -0.83840
C1059       C  0.33532436  0.42796928  0.04297487     0.96670
O1060       O  0.33433635  0.40797065  0.01446795    -0.83870
O1061       O  0.67023335  0.38833480  0.93888121    -0.86510
C1062       C  0.64134826  0.39004951  0.92715197     1.01200
O1063       O  0.64145084  0.42113703  0.92944257    -0.79280
O1064       O  0.66334271  0.49769033  0.93834503    -0.79460
C1065       C  0.65652769  0.50491222  0.97252690     1.01150
O1066       O  0.41363425  0.54481527  0.96372757    -0.86790
O1067       O  0.43860376  0.50757704  0.00904412    -0.83850
C1068       C  0.44389235  0.48180372  0.02230126     0.96690
O1069       O  0.41695087  0.44734148  0.02119595    -0.83880
O1070       O  0.41857945  0.43799307  0.94085856    -0.86480
C1071       C  0.41026201  0.43702502  0.90534591     1.01160
O1072       O  0.38254560  0.44187564  0.89449197    -0.79300
O1073       O  0.40280465  0.51553394  0.90679128    -0.79450
C1074       C  0.42073213  0.54471087  0.92749688     1.01130
Cr1075     Cr  0.38777215  0.50149822  0.00272565     1.93740
Cr1076     Cr  0.37669955  0.42365329  0.97833271     1.93210
Cr1077     Cr  0.35685926  0.46867939  0.92074763     1.39100
O1078       O  0.37424578  0.46537174  0.96705275    -1.24540
O1079       O  0.49682249  0.65837800  0.83546642    -0.86790
O1080       O  0.53541234  0.63567701  0.79025073    -0.83840
C1081       C  0.57008951  0.66278225  0.79398060     0.96670
O1082       O  0.59010070  0.66378013  0.82247926    -0.83870
O1083       O  0.60976748  0.32788164  0.89806246    -0.86510
C1084       C  0.60806672  0.35677396  0.90979694     1.01200
O1085       O  0.57698643  0.35668359  0.90751316    -0.79280
O1086       O  0.50043839  0.33482004  0.89862029    -0.79460
C1087       C  0.49318123  0.34160026  0.86443576     1.01030
O1088       O  0.45328708  0.58448850  0.87328282    -0.86790
O1089       O  0.49050094  0.55950585  0.82796066    -0.83850
C1090       C  0.51626056  0.55421691  0.81466849     0.96690
O1091       O  0.55072332  0.58115777  0.81575764    -0.83880
O1092       O  0.56010526  0.57953682  0.89609675    -0.86480
C1093       C  0.56107806  0.58784890  0.93161362     1.01160
O1094       O  0.55623566  0.61557350  0.94247579    -0.79300
O1095       O  0.48258253  0.59534924  0.93021068    -0.79450
C1096       C  0.45340510  0.57740126  0.90951334     1.01130
Cr1097     Cr  0.49658299  0.61033807  0.83426566     1.93740
Cr1098     Cr  0.57443228  0.62141642  0.85861892     1.93210
Cr1099     Cr  0.52943911  0.64128377  0.91622652     1.39100
O1100       O  0.53272361  0.62387855  0.86992159    -1.24540
O1101       O  0.49676995  0.50220425  0.33482165    -0.86790
O1102       O  0.53530389  0.56352211  0.38003135    -0.83840
C1103       C  0.56998003  0.57110653  0.37629603     0.96670
O1104       O  0.58998490  0.59009601  0.34778341    -0.83870
O1105       O  0.60966079  0.61227927  0.27219701    -0.86510
C1106       C  0.60796068  0.58167859  0.26047636     1.01200
O1107       O  0.57687225  0.55069203  0.26275346    -0.79280
O1108       O  0.50030611  0.49602579  0.27165920    -0.79460
C1109       C  0.49308957  0.48199887  0.30584525     1.01150
O1110       O  0.45318021  0.53248670  0.29702408    -0.86790
O1111       O  0.49037365  0.59472617  0.34234071    -0.83850
C1112       C  0.51613942  0.62578603  0.35561725     0.96690
O1113       O  0.55060736  0.63332706  0.35448314    -0.83880
O1114       O  0.55997906  0.64429064  0.27414439    -0.86480
C1115       C  0.56096274  0.63694129  0.23863495     1.01160
O1116       O  0.55612961  0.60437632  0.22778826    -0.79300
O1117       O  0.48247437  0.55097244  0.24009506    -0.79450
C1118       C  0.45329290  0.53970052  0.26079879     1.01130
Cr1119     Cr  0.49648138  0.54998396  0.33602582     1.93740
Cr1120     Cr  0.57431708  0.61676393  0.31163151     1.93210
Cr1121     Cr  0.52932444  0.55188624  0.25405296     1.39100
O1122       O  0.53261300  0.57258636  0.30035390    -1.24540
O1123       O  0.33964581  0.50216323  0.16880148    -0.86790
O1124       O  0.36239949  0.56347080  0.12358833    -0.83840
C1125       C  0.33530579  0.57105471  0.12731932     0.96670
O1126       O  0.33429063  0.59004654  0.15583101    -0.83870
O1127       O  0.67015757  0.61226539  0.23141733    -0.86510
C1128       C  0.64125645  0.58167419  0.24314615     1.01200
O1129       O  0.64134835  0.55068102  0.24087238    -0.79280
O1130       O  0.66321404  0.49599297  0.23195841    -0.79460
C1131       C  0.65642594  0.48196350  0.19777148     1.01150
O1132       O  0.41351758  0.53247317  0.20660331    -0.86790
O1133       O  0.43854456  0.59469549  0.16128108    -0.83850
C1134       C  0.44383235  0.62574695  0.14798818     0.96690
O1135       O  0.41689987  0.63328015  0.14911234    -0.83880
O1136       O  0.41851115  0.64426845  0.22945310    -0.86480
C1137       C  0.41018832  0.63693097  0.26496707     1.01160
O1138       O  0.38246141  0.60436369  0.27582555    -0.79300
O1139       O  0.40267549  0.55092697  0.26353377    -0.79450
C1140       C  0.42060871  0.53968350  0.24282972     1.01130
Cr1141     Cr  0.38770022  0.54995040  0.16759831     1.93740
Cr1142     Cr  0.37663715  0.61672876  0.19197487     1.93210
Cr1143     Cr  0.35674947  0.55185929  0.24956899     1.39100
O1144       O  0.37416382  0.57255252  0.20326489    -1.24540
O1145       O  0.50345167  0.33837604  0.16812738    -0.86790
O1146       O  0.56474464  0.36109589  0.21333801    -0.83840
C1147       C  0.57232379  0.33399686  0.20960682     0.96670
O1148       O  0.59132934  0.33298955  0.18110448    -0.83870
O1149       O  0.61357875  0.66888765  0.10552973    -0.86510
C1150       C  0.58299004  0.63998539  0.09380837     1.01200
O1151       O  0.55199677  0.64007050  0.09608967    -0.79280
O1152       O  0.49729935  0.66191062  0.10497604    -0.79460
C1153       C  0.48326129  0.65513590  0.13916115     1.01150
O1154       O  0.53380041  0.41225843  0.13031010    -0.86790
O1155       O  0.59599887  0.43725690  0.17564191    -0.83850
C1156       C  0.62703867  0.44253657  0.18895098     0.96690
O1157       O  0.63456039  0.41559592  0.18784781    -0.83880
O1158       O  0.64557639  0.41723470  0.10750625    -0.86480
C1159       C  0.63824618  0.40892064  0.07198981     1.01160
O1160       O  0.60568298  0.38119180  0.06112420    -0.79300
O1161       O  0.55222857  0.40138554  0.07338010    -0.79450
C1162       C  0.54100464  0.41933884  0.09407925     1.01130
Cr1163     Cr  0.55124894  0.38642077  0.16932715     1.93740
Cr1164     Cr  0.61802538  0.37534976  0.14497506     1.93210
Cr1165     Cr  0.55316944  0.35546358  0.08736934     1.39100
O1166       O  0.57385367  0.37288032  0.13367205    -1.24540
O1167       O  0.50352463  0.49552754  0.00210609    -0.86790
O1168       O  0.56483769  0.53411531  0.95689201    -0.83840
C1169       C  0.57242627  0.56879655  0.96063685     0.96670
O1170       O  0.59142368  0.58878924  0.98915216    -0.83870
O1171       O  0.61359997  0.60841338  0.06474781    -0.86510
C1172       C  0.58299751  0.60670089  0.07647193     1.01200
O1173       O  0.55201406  0.57561192  0.07418902    -0.79280
O1174       O  0.49735356  0.49905048  0.06527144    -0.79460
C1175       C  0.48332264  0.49184131  0.03108842     1.01150
O1176       O  0.53383677  0.45193769  0.03987426    -0.86790
O1177       O  0.59606485  0.48917181  0.99456610    -0.83850
C1178       C  0.62713266  0.51494705  0.98131773     0.96690
O1179       O  0.63465930  0.54941087  0.98243537    -0.83880
O1180       O  0.64561589  0.55874542  0.06277339    -0.86480
C1181       C  0.63826033  0.55970811  0.09828592     1.01160
O1182       O  0.60569451  0.55486482  0.10913639    -0.79300
O1183       O  0.55230224  0.48121141  0.09681270    -0.79450
C1184       C  0.54103789  0.45203533  0.07610263     1.01130
Cr1185     Cr  0.55131600  0.49526216  0.00088513     1.93740
Cr1186     Cr  0.61808909  0.57309684  0.02529604     1.93210
Cr1187     Cr  0.55321155  0.52806577  0.08287214     1.39100
O1188       O  0.57391293  0.53138095  0.03656627    -1.24540
O1189       O  0.50251117  0.49457150  0.83483829    -0.86790
O1190       O  0.46396487  0.43324847  0.88004476    -0.83840
C1191       C  0.42928989  0.42566873  0.87631500     0.96670
O1192       O  0.40928453  0.40668029  0.84780292    -0.83870
O1193       O  0.38961318  0.38451483  0.77220471    -0.86510
C1194       C  0.39132366  0.41511693  0.76047033     1.01200
O1195       O  0.42241322  0.44610208  0.76275763    -0.79280
O1196       O  0.49898924  0.50075939  0.77167658    -0.79460
C1197       C  0.50620793  0.51478429  0.80586359     1.01150
O1198       O  0.54609621  0.46428370  0.79703198    -0.86790
O1199       O  0.50889343  0.40204396  0.84234220    -0.83850
C1200       C  0.48312812  0.37098116  0.85561373     0.96690
O1201       O  0.44865760  0.36343465  0.85447643    -0.83880
O1202       O  0.43928010  0.35248600  0.77413485    -0.86480
C1203       C  0.43830285  0.35984414  0.73862665     1.01160
O1204       O  0.44314730  0.39241519  0.72778841    -0.79300
O1205       O  0.51680517  0.44580209  0.74010496    -0.79450
C1206       C  0.54598587  0.45707246  0.76080595     1.01130
Cr1207     Cr  0.50278988  0.44678688  0.83603480     1.93740
Cr1208     Cr  0.42495011  0.38001398  0.81163576     1.93210
Cr1209     Cr  0.46995931  0.44489956  0.75406277     1.39100
O1210       O  0.46665967  0.42419128  0.80036206    -1.24540
O1211       O  0.65962197  0.49462998  0.66876995    -0.86790
O1212       O  0.63686759  0.43332434  0.62355748    -0.83840
C1213       C  0.66396540  0.42574602  0.62727759     0.96670
O1214       O  0.66498582  0.40675117  0.65578365    -0.83870
O1215       O  0.32914239  0.38453350  0.73137338    -0.86510
C1216       C  0.35803818  0.41512373  0.74311251     1.01200
O1217       O  0.35794699  0.44611687  0.74082983    -0.79280
O1218       O  0.33607180  0.50080237  0.73192260    -0.79460
C1219       C  0.34284693  0.51483257  0.69773465     1.01150
O1220       O  0.58575812  0.46430893  0.70660038    -0.86790
O1221       O  0.56073160  0.40209360  0.66127362    -0.83850
C1222       C  0.55544381  0.37104598  0.64797079     0.96690
O1223       O  0.58237255  0.36350624  0.64909572    -0.83880
O1224       O  0.58078781  0.35251664  0.72944144    -0.86480
C1225       C  0.58911775  0.35985654  0.76495402     1.01160
O1226       O  0.61684177  0.39242880  0.77580402    -0.79300
O1227       O  0.59661567  0.44586039  0.76352407    -0.79450
C1228       C  0.57867314  0.45709723  0.74282808     1.01130
Cr1229     Cr  0.61157284  0.44683853  0.66758153     1.93740
Cr1230     Cr  0.62264988  0.38006363  0.69194426     1.93210
Cr1231     Cr  0.64254355  0.44493407  0.74954029     1.39100
O1232       O  0.62512005  0.42423811  0.70323986    -1.24540
O1233       O  0.65957363  0.49557477  0.50147290    -0.86790
O1234       O  0.63687090  0.53417794  0.54668649    -0.83840
C1235       C  0.66396559  0.56885861  0.54293409     0.96670
O1236       O  0.66495216  0.58885126  0.51442305    -0.83870
O1237       O  0.32904498  0.60846700  0.43883663    -0.86510
C1238       C  0.35793388  0.60675367  0.42711566     1.01200
O1239       O  0.35782971  0.57566508  0.42940090    -0.79280
O1240       O  0.33593991  0.49911374  0.43830784    -0.79460
C1241       C  0.34276323  0.49190275  0.47248902     1.01150
O1242       O  0.58566187  0.45199234  0.46371233    -0.86790
O1243       O  0.56068659  0.48923604  0.50902180    -0.83850
C1244       C  0.55539512  0.51501121  0.52227072     0.96690
O1245       O  0.58233830  0.54947219  0.52116707    -0.83880
O1246       O  0.58069864  0.55879782  0.44083471    -0.86480
C1247       C  0.58901252  0.55975973  0.40532178     1.01160
O1248       O  0.61673348  0.55491789  0.39446319    -0.79300
O1249       O  0.59647837  0.48126457  0.40677153    -0.79450
C1250       C  0.57856020  0.45208907  0.42748245     1.01130
Cr1251     Cr  0.61152150  0.49531823  0.50270053     1.93740
Cr1252     Cr  0.62258421  0.57315442  0.47829660     1.93210
Cr1253     Cr  0.64242298  0.52812162  0.42071485     1.39100
O1254       O  0.62504165  0.53143680  0.46702189    -1.24540
O1255       O  0.50248318  0.33841236  0.33546658    -0.86790
O1256       O  0.46389862  0.36110873  0.29024795    -0.83840
C1257       C  0.42922077  0.33400603  0.29398500     0.96670
O1258       O  0.40920910  0.33301363  0.32248229    -0.83870
O1259       O  0.38953393  0.66893231  0.39805363    -0.86510
C1260       C  0.39122426  0.64003300  0.40977952     1.01200
O1261       O  0.42230223  0.64011880  0.40750226    -0.79280
O1262       O  0.49883759  0.66195713  0.39861980    -0.79460
C1263       C  0.50609839  0.65517543  0.36443674     1.01150
O1264       O  0.54601554  0.41230558  0.37327403    -0.86790
O1265       O  0.50880794  0.43728615  0.32794445    -0.83850
C1266       C  0.48304802  0.44257016  0.31464633     0.96690
O1267       O  0.44858823  0.41562561  0.31573050    -0.83880
O1268       O  0.43920877  0.41727330  0.39606823    -0.86480
C1269       C  0.43822869  0.40896466  0.43158668     1.01160
O1270       O  0.44306553  0.38123877  0.44245750    -0.79300
O1271       O  0.51671584  0.40143857  0.43020401    -0.79450
C1272       C  0.54589342  0.41939127  0.40950448     1.01130
Cr1273     Cr  0.50272540  0.38645346  0.33425802     1.93740
Cr1274     Cr  0.42487722  0.37538440  0.35860459     1.93210
Cr1275     Cr  0.46985326  0.35551156  0.41621898     1.39100
O1276       O  0.46658137  0.37291823  0.36991238    -1.24540
O1277       O  0.49581468  0.65842447  0.66809436    -0.86790
O1278       O  0.43451602  0.63569275  0.71330603    -0.83840
C1279       C  0.42694058  0.66279538  0.70958808     0.96670
O1280       O  0.40794139  0.66381477  0.68108778    -0.83870
O1281       O  0.38570476  0.32794203  0.60551020    -0.86510
C1282       C  0.41629461  0.35684409  0.59378628     1.01200
O1283       O  0.44728773  0.35675878  0.59606804    -0.79280
O1284       O  0.50198226  0.33490835  0.60494567    -0.79460
C1285       C  0.51601415  0.34166721  0.63913257     1.01150
O1286       O  0.46547257  0.58455948  0.63025154    -0.86790
O1287       O  0.40326656  0.55954453  0.67558286    -0.83850
C1288       C  0.37222858  0.55426229  0.68890352     0.96690
O1289       O  0.36470399  0.58120187  0.68780486    -0.83880
O1290       O  0.35370394  0.57959419  0.60746452    -0.86480
C1291       C  0.36103907  0.58791373  0.57194914     1.01160
O1292       O  0.39360227  0.61564731  0.56108602    -0.79300
O1293       O  0.44705216  0.59544526  0.57332639    -0.79450
C1294       C  0.45827288  0.57748682  0.59401992     1.01130
Cr1295     Cr  0.44801741  0.61038245  0.66928107     1.93740
Cr1296     Cr  0.38124925  0.62146630  0.64494417     1.93210
Cr1297     Cr  0.44611321  0.64136593  0.58733349     1.39100
O1298       O  0.42542094  0.62393681  0.63363405    -1.24540
O1299       O  0.49576738  0.50128881  0.50206223    -0.86790
O1300       O  0.43446095  0.46269975  0.45684727    -0.83840
C1301       C  0.42687357  0.42801985  0.46060059     0.96670
O1302       O  0.40786949  0.40802968  0.48911574    -0.83870
O1303       O  0.38568635  0.38841003  0.56471114    -0.86510
C1304       C  0.41628795  0.39012656  0.57644184     1.01200
O1305       O  0.44727062  0.42121668  0.57415638    -0.79280
O1306       O  0.50192690  0.49777871  0.56523022    -0.79460
C1307       C  0.51596352  0.50497803  0.53104848     1.01150
O1308       O  0.46544979  0.54488731  0.53981514    -0.86790
O1309       O  0.40322958  0.50764727  0.49450757    -0.83850
C1310       C  0.37215903  0.48186932  0.48127089     0.96690
O1311       O  0.36463228  0.44740564  0.48239084    -0.83880
O1312       O  0.35366213  0.43807133  0.56272886    -0.86480
C1313       C  0.36101438  0.43710732  0.59824141     1.01160
O1314       O  0.39358261  0.44196031  0.60909093    -0.79300
O1315       O  0.44696758  0.51561398  0.59675365    -0.79450
C1316       C  0.45823865  0.54479006  0.57604178     1.01130
Cr1317     Cr  0.44797652  0.50155696  0.50083330     1.93740
Cr1318     Cr  0.38119807  0.42372263  0.52525412     1.93210
Cr1319     Cr  0.44606706  0.46876180  0.58282697     1.39100
O1320       O  0.42537249  0.46544108  0.53651950    -1.24540
O1321       O  0.33972513  0.83458341  0.00150656    -0.86790
O1322       O  0.36242194  0.79598204  0.04672132    -0.83840
C1323       C  0.33532436  0.76130261  0.04297487     0.96670
O1324       O  0.33433635  0.74130398  0.01446795    -0.83870
O1325       O  0.67023335  0.72166813  0.93888120    -0.86510
C1326       C  0.64134826  0.72338284  0.92715197     1.01200
O1327       O  0.64145084  0.75447037  0.92944257    -0.79280
O1328       O  0.66334271  0.83102366  0.93834503    -0.79460
C1329       C  0.65652769  0.83824556  0.97252690     1.01150
O1330       O  0.41363425  0.87814860  0.96372756    -0.86790
O1331       O  0.43860376  0.84091037  0.00904412    -0.83850
C1332       C  0.44389235  0.81513705  0.02230126     0.96690
O1333       O  0.41695087  0.78067481  0.02119595    -0.83880
O1334       O  0.41857944  0.77132639  0.94085856    -0.86480
C1335       C  0.41026201  0.77035835  0.90534591     1.01160
O1336       O  0.38254559  0.77520897  0.89449196    -0.79300
O1337       O  0.40280465  0.84886727  0.90679127    -0.79450
C1338       C  0.42073212  0.87804420  0.92749688     1.01130
Cr1339     Cr  0.38777215  0.83483155  0.00272565     1.93740
Cr1340     Cr  0.37669955  0.75698662  0.97833271     1.93210
Cr1341     Cr  0.35685926  0.80201271  0.92074763     1.39100
O1342       O  0.37424578  0.79870507  0.96705275    -1.24540
O1343       O  0.49682249  0.99171133  0.83546642    -0.86790
O1344       O  0.53541234  0.96901034  0.79025073    -0.83840
C1345       C  0.57008950  0.99611559  0.79398060     0.96670
O1346       O  0.59010070  0.99711346  0.82247926    -0.83870
O1347       O  0.60976748  0.66121498  0.89806245    -0.86510
C1348       C  0.60806673  0.69010729  0.90979694     1.01200
O1349       O  0.57698644  0.69001692  0.90751315    -0.79280
O1350       O  0.50043839  0.66815337  0.89862029    -0.79460
C1351       C  0.49318124  0.67493359  0.86443576     1.01030
O1352       O  0.45328707  0.91782183  0.87328282    -0.86790
O1353       O  0.49050094  0.89283919  0.82796066    -0.83850
C1354       C  0.51626056  0.88755024  0.81466848     0.96690
O1355       O  0.55072332  0.91449110  0.81575764    -0.83880
O1356       O  0.56010526  0.91287015  0.89609675    -0.86480
C1357       C  0.56107806  0.92118224  0.93161361     1.01160
O1358       O  0.55623566  0.94890683  0.94247579    -0.79300
O1359       O  0.48258252  0.92868257  0.93021068    -0.79450
C1360       C  0.45340510  0.91073459  0.90951334     1.01130
Cr1361     Cr  0.49658299  0.94367140  0.83426566     1.93740
Cr1362     Cr  0.57443228  0.95474975  0.85861892     1.93210
Cr1363     Cr  0.52943910  0.97461710  0.91622652     1.39100
O1364       O  0.53272361  0.95721188  0.86992159    -1.24540
O1365       O  0.49676995  0.83553758  0.33482165    -0.86790
O1366       O  0.53530388  0.89685545  0.38003136    -0.83840
C1367       C  0.56998002  0.90443986  0.37629604     0.96670
O1368       O  0.58998490  0.92342935  0.34778342    -0.83870
O1369       O  0.60966079  0.94561260  0.27219701    -0.86510
C1370       C  0.60796068  0.91501192  0.26047636     1.01200
O1371       O  0.57687225  0.88402536  0.26275347    -0.79280
O1372       O  0.50030611  0.82935912  0.27165920    -0.79460
C1373       C  0.49308957  0.81533220  0.30584525     1.01150
O1374       O  0.45318021  0.86582003  0.29702408    -0.86790
O1375       O  0.49037365  0.92805950  0.34234071    -0.83850
C1376       C  0.51613941  0.95911937  0.35561725     0.96690
O1377       O  0.55060736  0.96666040  0.35448314    -0.83880
O1378       O  0.55997906  0.97762397  0.27414439    -0.86480
C1379       C  0.56096274  0.97027462  0.23863495     1.01160
O1380       O  0.55612961  0.93770965  0.22778827    -0.79300
O1381       O  0.48247437  0.88430578  0.24009506    -0.79450
C1382       C  0.45329290  0.87303385  0.26079879     1.01130
Cr1383     Cr  0.49648137  0.88331730  0.33602583     1.93740
Cr1384     Cr  0.57431708  0.95009727  0.31163152     1.93210
Cr1385     Cr  0.52932444  0.88521958  0.25405296     1.39100
O1386       O  0.53261300  0.90591970  0.30035391    -1.24540
O1387       O  0.33964581  0.83549656  0.16880148    -0.86790
O1388       O  0.36239949  0.89680413  0.12358833    -0.83840
C1389       C  0.33530579  0.90438804  0.12731932     0.96670
O1390       O  0.33429063  0.92337987  0.15583100    -0.83870
O1391       O  0.67015757  0.94559872  0.23141733    -0.86510
C1392       C  0.64125645  0.91500752  0.24314615     1.01200
O1393       O  0.64134835  0.88401435  0.24087239    -0.79280
O1394       O  0.66321404  0.82932630  0.23195841    -0.79460
C1395       C  0.65642594  0.81529683  0.19777149     1.01150
O1396       O  0.41351758  0.86580650  0.20660332    -0.86790
O1397       O  0.43854456  0.92802882  0.16128109    -0.83850
C1398       C  0.44383235  0.95908028  0.14798818     0.96690
O1399       O  0.41689987  0.96661348  0.14911234    -0.83880
O1400       O  0.41851115  0.97760178  0.22945310    -0.86480
C1401       C  0.41018832  0.97026430  0.26496707     1.01160
O1402       O  0.38246141  0.93769702  0.27582555    -0.79300
O1403       O  0.40267549  0.88426031  0.26353377    -0.79450
C1404       C  0.42060871  0.87301684  0.24282972     1.01130
Cr1405     Cr  0.38770022  0.88328374  0.16759831     1.93740
Cr1406     Cr  0.37663715  0.95006210  0.19197487     1.93210
Cr1407     Cr  0.35674947  0.88519262  0.24956899     1.39100
O1408       O  0.37416382  0.90588585  0.20326489    -1.24540
O1409       O  0.50345167  0.67170938  0.16812738    -0.86790
O1410       O  0.56474464  0.69442922  0.21333801    -0.83840
C1411       C  0.57232379  0.66733019  0.20960682     0.96670
O1412       O  0.59132934  0.66632288  0.18110448    -0.83870
O1413       O  0.61357874  0.00222098  0.10552973    -0.86510
C1414       C  0.58299003  0.97331872  0.09380836     1.01200
O1415       O  0.55199676  0.97340383  0.09608967    -0.79280
O1416       O  0.49729935  0.99524396  0.10497604    -0.79460
C1417       C  0.48326129  0.98846924  0.13916115     1.01150
O1418       O  0.53380041  0.74559177  0.13031010    -0.86790
O1419       O  0.59599887  0.77059023  0.17564191    -0.83850
C1420       C  0.62703867  0.77586990  0.18895098     0.96690
O1421       O  0.63456039  0.74892925  0.18784781    -0.83880
O1422       O  0.64557639  0.75056803  0.10750625    -0.86480
C1423       C  0.63824618  0.74225398  0.07198981     1.01160
O1424       O  0.60568298  0.71452514  0.06112419    -0.79300
O1425       O  0.55222856  0.73471888  0.07338010    -0.79450
C1426       C  0.54100464  0.75267217  0.09407925     1.01130
Cr1427     Cr  0.55124894  0.71975410  0.16932714     1.93740
Cr1428     Cr  0.61802538  0.70868310  0.14497506     1.93210
Cr1429     Cr  0.55316944  0.68879691  0.08736933     1.39100
O1430       O  0.57385367  0.70621365  0.13367205    -1.24540
O1431       O  0.50352463  0.82886087  0.00210609    -0.86790
O1432       O  0.56483769  0.86744864  0.95689201    -0.83840
C1433       C  0.57242627  0.90212988  0.96063685     0.96670
O1434       O  0.59142368  0.92212257  0.98915216    -0.83870
O1435       O  0.61359997  0.94174671  0.06474780    -0.86510
C1436       C  0.58299750  0.94003422  0.07647193     1.01200
O1437       O  0.55201405  0.90894525  0.07418902    -0.79280
O1438       O  0.49735355  0.83238381  0.06527143    -0.79460
C1439       C  0.48332264  0.82517464  0.03108842     1.01150
O1440       O  0.53383676  0.78527102  0.03987426    -0.86790
O1441       O  0.59606485  0.82250514  0.99456610    -0.83850
C1442       C  0.62713266  0.84828039  0.98131773     0.96690
O1443       O  0.63465931  0.88274420  0.98243537    -0.83880
O1444       O  0.64561589  0.89207875  0.06277339    -0.86480
C1445       C  0.63826033  0.89304144  0.09828593     1.01160
O1446       O  0.60569451  0.88819815  0.10913639    -0.79300
O1447       O  0.55230224  0.81454474  0.09681270    -0.79450
C1448       C  0.54103789  0.78536866  0.07610263     1.01130
Cr1449     Cr  0.55131600  0.82859549  0.00088513     1.93740
Cr1450     Cr  0.61808909  0.90643017  0.02529604     1.93210
Cr1451     Cr  0.55321154  0.86139910  0.08287214     1.39100
O1452       O  0.57391293  0.86471428  0.03656627    -1.24540
O1453       O  0.50251117  0.82790483  0.83483829    -0.86790
O1454       O  0.46396486  0.76658180  0.88004475    -0.83840
C1455       C  0.42928988  0.75900206  0.87631500     0.96670
O1456       O  0.40928453  0.74001361  0.84780292    -0.83870
O1457       O  0.38961319  0.71784816  0.77220470    -0.86510
C1458       C  0.39132366  0.74845026  0.76047033     1.01200
O1459       O  0.42241322  0.77943540  0.76275763    -0.79280
O1460       O  0.49898924  0.83409272  0.77167657    -0.79460
C1461       C  0.50620792  0.84811763  0.80586359     1.01150
O1462       O  0.54609621  0.79761704  0.79703198    -0.86790
O1463       O  0.50889343  0.73537729  0.84234220    -0.83850
C1464       C  0.48312812  0.70431449  0.85561373     0.96690
O1465       O  0.44865760  0.69676799  0.85447643    -0.83880
O1466       O  0.43928011  0.68581934  0.77413484    -0.86480
C1467       C  0.43830286  0.69317748  0.73862665     1.01160
O1468       O  0.44314731  0.72574852  0.72778841    -0.79300
O1469       O  0.51680518  0.77913542  0.74010496    -0.79450
C1470       C  0.54598587  0.79040580  0.76080595     1.01130
Cr1471     Cr  0.50278988  0.78012021  0.83603479     1.93740
Cr1472     Cr  0.42495012  0.71334731  0.81163576     1.93210
Cr1473     Cr  0.46995932  0.77823289  0.75406277     1.39100
O1474       O  0.46665967  0.75752462  0.80036205    -1.24540
O1475       O  0.65962198  0.82796331  0.66876994    -0.86790
O1476       O  0.63686759  0.76665767  0.62355748    -0.83840
C1477       C  0.66396541  0.75907935  0.62727759     0.96670
O1478       O  0.66498582  0.74008451  0.65578365    -0.83870
O1479       O  0.32914239  0.71786683  0.73137338    -0.86510
C1480       C  0.35803818  0.74845706  0.74311251     1.01200
O1481       O  0.35794699  0.77945020  0.74082983    -0.79280
O1482       O  0.33607180  0.83413569  0.73192260    -0.79460
C1483       C  0.34284693  0.84816589  0.69773465     1.01150
O1484       O  0.58575812  0.79764226  0.70660037    -0.86790
O1485       O  0.56073160  0.73542694  0.66127362    -0.83850
C1486       C  0.55544382  0.70437932  0.64797079     0.96690
O1487       O  0.58237256  0.69683958  0.64909572    -0.83880
O1488       O  0.58078782  0.68584998  0.72944144    -0.86480
C1489       C  0.58911775  0.69318988  0.76495402     1.01160
O1490       O  0.61684177  0.72576213  0.77580402    -0.79300
O1491       O  0.59661567  0.77919372  0.76352407    -0.79450
C1492       C  0.57867315  0.79043056  0.74282808     1.01130
Cr1493     Cr  0.61157284  0.78017187  0.66758153     1.93740
Cr1494     Cr  0.62264989  0.71339696  0.69194426     1.93210
Cr1495     Cr  0.64254355  0.77826740  0.74954029     1.39100
O1496       O  0.62512006  0.75757145  0.70323986    -1.24540
O1497       O  0.65957363  0.82890810  0.50147290    -0.86790
O1498       O  0.63687090  0.86751127  0.54668650    -0.83840
C1499       C  0.66396559  0.90219194  0.54293410     0.96670
O1500       O  0.66495216  0.92218460  0.51442305    -0.83870
O1501       O  0.32904498  0.94180033  0.43883663    -0.86510
C1502       C  0.35793388  0.94008701  0.42711566     1.01200
O1503       O  0.35782971  0.90899841  0.42940090    -0.79280
O1504       O  0.33593991  0.83244708  0.43830784    -0.79460
C1505       C  0.34276323  0.82523608  0.47248902     1.01150
O1506       O  0.58566187  0.78532567  0.46371233    -0.86790
O1507       O  0.56068659  0.82256938  0.50902181    -0.83850
C1508       C  0.55539512  0.84834454  0.52227073     0.96690
O1509       O  0.58233830  0.88280552  0.52116707    -0.83880
O1510       O  0.58069864  0.89213115  0.44083472    -0.86480
C1511       C  0.58901252  0.89309306  0.40532178     1.01160
O1512       O  0.61673348  0.88825123  0.39446319    -0.79300
O1513       O  0.59647837  0.81459790  0.40677153    -0.79450
C1514       C  0.57856020  0.78542240  0.42748245     1.01130
Cr1515     Cr  0.61152150  0.82865156  0.50270053     1.93740
Cr1516     Cr  0.62258421  0.90648776  0.47829660     1.93210
Cr1517     Cr  0.64242298  0.86145496  0.42071485     1.39100
O1518       O  0.62504165  0.86477013  0.46702190    -1.24540
O1519       O  0.50248319  0.67174570  0.33546658    -0.86790
O1520       O  0.46389862  0.69444206  0.29024795    -0.83840
C1521       C  0.42922077  0.66733936  0.29398500     0.96670
O1522       O  0.40920910  0.66634696  0.32248229    -0.83870
O1523       O  0.38953393  0.00226564  0.39805363    -0.86510
C1524       C  0.39122426  0.97336633  0.40977952     1.01200
O1525       O  0.42230223  0.97345214  0.40750226    -0.79280
O1526       O  0.49883759  0.99529047  0.39861980    -0.79460
C1527       C  0.50609839  0.98850876  0.36443674     1.01150
O1528       O  0.54601554  0.74563892  0.37327403    -0.86790
O1529       O  0.50880793  0.77061949  0.32794446    -0.83850
C1530       C  0.48304802  0.77590349  0.31464633     0.96690
O1531       O  0.44858823  0.74895894  0.31573050    -0.83880
O1532       O  0.43920877  0.75060663  0.39606823    -0.86480
C1533       C  0.43822869  0.74229799  0.43158668     1.01160
O1534       O  0.44306553  0.71457210  0.44245750    -0.79300
O1535       O  0.51671584  0.73477190  0.43020401    -0.79450
C1536       C  0.54589342  0.75272460  0.40950448     1.01130
Cr1537     Cr  0.50272540  0.71978679  0.33425802     1.93740
Cr1538     Cr  0.42487722  0.70871773  0.35860459     1.93210
Cr1539     Cr  0.46985326  0.68884489  0.41621897     1.39100
O1540       O  0.46658137  0.70625156  0.36991238    -1.24540
O1541       O  0.49581468  0.99175781  0.66809436    -0.86790
O1542       O  0.43451602  0.96902608  0.71330603    -0.83840
C1543       C  0.42694057  0.99612871  0.70958808     0.96670
O1544       O  0.40794138  0.99714809  0.68108778    -0.83870
O1545       O  0.38570477  0.66127536  0.60551020    -0.86510
C1546       C  0.41629462  0.69017742  0.59378628     1.01200
O1547       O  0.44728773  0.69009212  0.59606804    -0.79280
O1548       O  0.50198226  0.66824169  0.60494567    -0.79460
C1549       C  0.51601416  0.67500054  0.63913257     1.01150
O1550       O  0.46547257  0.91789282  0.63025154    -0.86790
O1551       O  0.40326656  0.89287786  0.67558286    -0.83850
C1552       C  0.37222857  0.88759562  0.68890352     0.96690
O1553       O  0.36470398  0.91453520  0.68780486    -0.83880
O1554       O  0.35370394  0.91292752  0.60746452    -0.86480
C1555       C  0.36103907  0.92124706  0.57194914     1.01160
O1556       O  0.39360227  0.94898064  0.56108602    -0.79300
O1557       O  0.44705216  0.92877859  0.57332639    -0.79450
C1558       C  0.45827287  0.91082016  0.59401992     1.01130
Cr1559     Cr  0.44801741  0.94371578  0.66928106     1.93740
Cr1560     Cr  0.38124925  0.95479963  0.64494417     1.93210
Cr1561     Cr  0.44611321  0.97469926  0.58733349     1.39100
O1562       O  0.42542094  0.95727015  0.63363405    -1.24540
O1563       O  0.49576738  0.83462214  0.50206223    -0.86790
O1564       O  0.43446095  0.79603308  0.45684727    -0.83840
C1565       C  0.42687357  0.76135318  0.46060059     0.96670
O1566       O  0.40786949  0.74136301  0.48911574    -0.83870
O1567       O  0.38568635  0.72174336  0.56471113    -0.86510
C1568       C  0.41628795  0.72345989  0.57644183     1.01200
O1569       O  0.44727063  0.75455002  0.57415638    -0.79280
O1570       O  0.50192690  0.83111204  0.56523023    -0.79460
C1571       C  0.51596352  0.83831136  0.53104848     1.01150
O1572       O  0.46544979  0.87822064  0.53981514    -0.86790
O1573       O  0.40322958  0.84098060  0.49450757    -0.83850
C1574       C  0.37215903  0.81520265  0.48127089     0.96690
O1575       O  0.36463228  0.78073897  0.48239083    -0.83880
O1576       O  0.35366213  0.77140466  0.56272886    -0.86480
C1577       C  0.36101438  0.77044064  0.59824141     1.01160
O1578       O  0.39358261  0.77529364  0.60909093    -0.79300
O1579       O  0.44696757  0.84894731  0.59675365    -0.79450
C1580       C  0.45823864  0.87812339  0.57604178     1.01130
Cr1581     Cr  0.44797652  0.83489029  0.50083330     1.93740
Cr1582     Cr  0.38119807  0.75705596  0.52525412     1.93210
Cr1583     Cr  0.44606706  0.80209513  0.58282697     1.39100
O1584       O  0.42537249  0.79877441  0.53651950    -1.24540
O1585       O  0.67305847  0.16791674  0.00150656    -0.86790
O1586       O  0.69575527  0.12931537  0.04672132    -0.83840
C1587       C  0.66865769  0.09463594  0.04297487     0.96670
O1588       O  0.66766968  0.07463731  0.01446795    -0.83870
O1589       O  0.00356668  0.05500147  0.93888120    -0.86510
C1590       C  0.97468159  0.05671618  0.92715197     1.01200
O1591       O  0.97478418  0.08780370  0.92944257    -0.79280
O1592       O  0.99667604  0.16435699  0.93834503    -0.79460
C1593       C  0.98986103  0.17157889  0.97252690     1.01150
O1594       O  0.74696758  0.21148193  0.96372756    -0.86790
O1595       O  0.77193709  0.17424370  0.00904412    -0.83850
C1596       C  0.77722568  0.14847039  0.02230126     0.96690
O1597       O  0.75028420  0.11400814  0.02119595    -0.83880
O1598       O  0.75191278  0.10465973  0.94085856    -0.86480
C1599       C  0.74359534  0.10369168  0.90534591     1.01160
O1600       O  0.71587893  0.10854230  0.89449196    -0.79300
O1601       O  0.73613799  0.18220060  0.90679127    -0.79450
C1602       C  0.75406546  0.21137753  0.92749688     1.01130
Cr1603     Cr  0.72110548  0.16816488  0.00272565     1.93740
Cr1604     Cr  0.71003288  0.09031995  0.97833271     1.93210
Cr1605     Cr  0.69019259  0.13534605  0.92074763     1.39100
O1606       O  0.70757911  0.13203840  0.96705275    -1.24540
O1607       O  0.83015582  0.32504466  0.83546642    -0.86790
O1608       O  0.86874567  0.30234368  0.79025073    -0.83840
C1609       C  0.90342284  0.32944892  0.79398061     0.96670
O1610       O  0.92343403  0.33044679  0.82247927    -0.83870
O1611       O  0.94310082  0.99454831  0.89806245    -0.86510
C1612       C  0.94140006  0.02344062  0.90979694     1.01200
O1613       O  0.91031977  0.02335025  0.90751315    -0.79280
O1614       O  0.83377172  0.00148670  0.89862029    -0.79460
C1615       C  0.82651457  0.00826692  0.86443576     1.01030
O1616       O  0.78662041  0.25115516  0.87328283    -0.86790
O1617       O  0.82383427  0.22617252  0.82796066    -0.83850
C1618       C  0.84959389  0.22088357  0.81466849     0.96690
O1619       O  0.88405665  0.24782443  0.81575765    -0.83880
O1620       O  0.89343859  0.24620349  0.89609675    -0.86480
C1621       C  0.89441139  0.25451557  0.93161362     1.01160
O1622       O  0.88956899  0.28224017  0.94247580    -0.79300
O1623       O  0.81591586  0.26201590  0.93021068    -0.79450
C1624       C  0.78673843  0.24406793  0.90951334     1.01130
Cr1625     Cr  0.82991632  0.27700474  0.83426567     1.93740
Cr1626     Cr  0.90776561  0.28808308  0.85861892     1.93210
Cr1627     Cr  0.86277243  0.30795044  0.91622652     1.39100
O1628       O  0.86605694  0.29054522  0.86992159    -1.24540
O1629       O  0.83010329  0.16887092  0.33482166    -0.86790
O1630       O  0.86863723  0.23018878  0.38003136    -0.83840
C1631       C  0.90331336  0.23777320  0.37629604     0.96670
O1632       O  0.92331824  0.25676268  0.34778343    -0.83870
O1633       O  0.94299413  0.27894594  0.27219702    -0.86510
C1634       C  0.94129401  0.24834526  0.26047637     1.01200
O1635       O  0.91020559  0.21735870  0.26275347    -0.79280
O1636       O  0.83363945  0.16269246  0.27165921    -0.79460
C1637       C  0.82642291  0.14866554  0.30584526     1.01150
O1638       O  0.78651355  0.19915337  0.29702409    -0.86790
O1639       O  0.82370699  0.26139284  0.34234072    -0.83850
C1640       C  0.84947275  0.29245270  0.35561726     0.96690
O1641       O  0.88394070  0.29999374  0.35448315    -0.83880
O1642       O  0.89331240  0.31095731  0.27414440    -0.86480
C1643       C  0.89429608  0.30360796  0.23863496     1.01160
O1644       O  0.88946295  0.27104299  0.22778827    -0.79300
O1645       O  0.81580771  0.21763912  0.24009507    -0.79450
C1646       C  0.78662624  0.20636719  0.26079880     1.01130
Cr1647     Cr  0.82981471  0.21665064  0.33602583     1.93740
Cr1648     Cr  0.90765042  0.28343061  0.31163152     1.93210
Cr1649     Cr  0.86265778  0.21855292  0.25405297     1.39100
O1650       O  0.86594634  0.23925304  0.30035391    -1.24540
O1651       O  0.67297915  0.16882989  0.16880148    -0.86790
O1652       O  0.69573282  0.23013746  0.12358834    -0.83840
C1653       C  0.66863912  0.23772137  0.12731933     0.96670
O1654       O  0.66762397  0.25671320  0.15583101    -0.83870
O1655       O  0.00349090  0.27893205  0.23141734    -0.86510
C1656       C  0.97458978  0.24834086  0.24314616     1.01200
O1657       O  0.97468168  0.21734768  0.24087239    -0.79280
O1658       O  0.99654737  0.16265963  0.23195841    -0.79460
C1659       C  0.98975927  0.14863016  0.19777149     1.01150
O1660       O  0.74685092  0.19913984  0.20660332    -0.86790
O1661       O  0.77187789  0.26136215  0.16128109    -0.83850
C1662       C  0.77716568  0.29241362  0.14798818     0.96690
O1663       O  0.75023320  0.29994681  0.14911234    -0.83880
O1664       O  0.75184448  0.31093511  0.22945311    -0.86480
C1665       C  0.74352165  0.30359763  0.26496707     1.01160
O1666       O  0.71579474  0.27103035  0.27582556    -0.79300
O1667       O  0.73600882  0.21759363  0.26353377    -0.79450
C1668       C  0.75394204  0.20635017  0.24282973     1.01130
Cr1669     Cr  0.72103356  0.21661707  0.16759832     1.93740
Cr1670     Cr  0.70997048  0.28339543  0.19197488     1.93210
Cr1671     Cr  0.69008280  0.21852595  0.24956899     1.39100
O1672       O  0.70749716  0.23921918  0.20326489    -1.24540
O1673       O  0.83678501  0.00504271  0.16812738    -0.86790
O1674       O  0.89807797  0.02776255  0.21333801    -0.83840
C1675       C  0.90565712  0.00066352  0.20960682     0.96670
O1676       O  0.92466267  0.99965621  0.18110448    -0.83870
O1677       O  0.94691208  0.33555431  0.10552974    -0.86510
C1678       C  0.91632337  0.30665206  0.09380837     1.01200
O1679       O  0.88533010  0.30673717  0.09608967    -0.79280
O1680       O  0.83063269  0.32857729  0.10497604    -0.79460
C1681       C  0.81659463  0.32180257  0.13916115     1.01150
O1682       O  0.86713374  0.07892510  0.13031010    -0.86790
O1683       O  0.92933220  0.10392356  0.17564191    -0.83850
C1684       C  0.96037200  0.10920323  0.18895098     0.96690
O1685       O  0.96789372  0.08226258  0.18784781    -0.83880
O1686       O  0.97890972  0.08390136  0.10750625    -0.86480
C1687       C  0.97157951  0.07558731  0.07198981     1.01160
O1688       O  0.93901631  0.04785847  0.06112419    -0.79300
O1689       O  0.88556190  0.06805221  0.07338010    -0.79450
C1690       C  0.87433797  0.08600551  0.09407925     1.01130
Cr1691     Cr  0.88458227  0.05308743  0.16932714     1.93740
Cr1692     Cr  0.95135871  0.04201643  0.14497506     1.93210
Cr1693     Cr  0.88650277  0.02213025  0.08736933     1.39100
O1694       O  0.90718700  0.03954698  0.13367205    -1.24540
O1695       O  0.83685796  0.16219420  0.00210609    -0.86790
O1696       O  0.89817102  0.20078198  0.95689201    -0.83840
C1697       C  0.90575960  0.23546321  0.96063685     0.96670
O1698       O  0.92475701  0.25545591  0.98915217    -0.83870
O1699       O  0.94693330  0.27508004  0.06474781    -0.86510
C1700       C  0.91633084  0.27336755  0.07647194     1.01200
O1701       O  0.88534739  0.24227858  0.07418902    -0.79280
O1702       O  0.83068688  0.16571715  0.06527144    -0.79460
C1703       C  0.81665597  0.15850798  0.03108842     1.01150
O1704       O  0.86717010  0.11860436  0.03987427    -0.86790
O1705       O  0.92939818  0.15583847  0.99456610    -0.83850
C1706       C  0.96046599  0.18161372  0.98131773     0.96690
O1707       O  0.96799264  0.21607753  0.98243538    -0.83880
O1708       O  0.97894922  0.22541208  0.06277340    -0.86480
C1709       C  0.97159366  0.22637477  0.09828593     1.01160
O1710       O  0.93902784  0.22153148  0.10913640    -0.79300
O1711       O  0.88563556  0.14787807  0.09681270    -0.79450
C1712       C  0.87437122  0.11870200  0.07610264     1.01130
Cr1713     Cr  0.88464933  0.16192882  0.00088513     1.93740
Cr1714     Cr  0.95142242  0.23976350  0.02529605     1.93210
Cr1715     Cr  0.88654487  0.19473243  0.08287214     1.39100
O1716       O  0.90724626  0.19804761  0.03656628    -1.24540
O1717       O  0.83584450  0.16123817  0.83483829    -0.86790
O1718       O  0.79729820  0.09991513  0.88004476    -0.83840
C1719       C  0.76262322  0.09233539  0.87631500     0.96670
O1720       O  0.74261786  0.07334695  0.84780292    -0.83870
O1721       O  0.72294652  0.05118149  0.77220470    -0.86510
C1722       C  0.72465699  0.08178359  0.76047033     1.01200
O1723       O  0.75574655  0.11276874  0.76275763    -0.79280
O1724       O  0.83232257  0.16742605  0.77167658    -0.79460
C1725       C  0.83954126  0.18145096  0.80586359     1.01150
O1726       O  0.87942954  0.13095037  0.79703199    -0.86790
O1727       O  0.84222676  0.06871062  0.84234220    -0.83850
C1728       C  0.81646145  0.03764782  0.85561373     0.96690
O1729       O  0.78199093  0.03010132  0.85447643    -0.83880
O1730       O  0.77261344  0.01915267  0.77413485    -0.86480
C1731       C  0.77163619  0.02651081  0.73862665     1.01160
O1732       O  0.77648064  0.05908185  0.72778841    -0.79300
O1733       O  0.85013851  0.11246876  0.74010496    -0.79450
C1734       C  0.87931920  0.12373913  0.76080595     1.01130
Cr1735     Cr  0.83612321  0.11345354  0.83603480     1.93740
Cr1736     Cr  0.75828345  0.04668065  0.81163576     1.93210
Cr1737     Cr  0.80329265  0.11156622  0.75406277     1.39100
O1738       O  0.79999300  0.09085795  0.80036206    -1.24540
O1739       O  0.99295531  0.16129665  0.66876995    -0.86790
O1740       O  0.97020093  0.09999101  0.62355748    -0.83840
C1741       C  0.99729874  0.09241269  0.62727759     0.96670
O1742       O  0.99831916  0.07341784  0.65578365    -0.83870
O1743       O  0.66247572  0.05120016  0.73137338    -0.86510
C1744       C  0.69137152  0.08179039  0.74311251     1.01200
O1745       O  0.69128032  0.11278353  0.74082983    -0.79280
O1746       O  0.66940514  0.16746903  0.73192260    -0.79460
C1747       C  0.67618026  0.18149923  0.69773465     1.01150
O1748       O  0.91909145  0.13097559  0.70660038    -0.86790
O1749       O  0.89406494  0.06876027  0.66127362    -0.83850
C1750       C  0.88877715  0.03771265  0.64797079     0.96690
O1751       O  0.91570589  0.03017291  0.64909572    -0.83880
O1752       O  0.91412115  0.01918331  0.72944144    -0.86480
C1753       C  0.92245108  0.02652321  0.76495401     1.01160
O1754       O  0.95017511  0.05909547  0.77580402    -0.79300
O1755       O  0.92994901  0.11252706  0.76352407    -0.79450
C1756       C  0.91200648  0.12376389  0.74282808     1.01130
Cr1757     Cr  0.94490617  0.11350520  0.66758153     1.93740
Cr1758     Cr  0.95598322  0.04673030  0.69194426     1.93210
Cr1759     Cr  0.97587688  0.11160074  0.74954029     1.39100
O1760       O  0.95845339  0.09090478  0.70323986    -1.24540
O1761       O  0.99290697  0.16224143  0.50147290    -0.86790
O1762       O  0.97020424  0.20084460  0.54668650    -0.83840
C1763       C  0.99729893  0.23552527  0.54293410     0.96670
O1764       O  0.99828550  0.25551793  0.51442306    -0.83870
O1765       O  0.66237831  0.27513366  0.43883663    -0.86510
C1766       C  0.69126721  0.27342034  0.42711566     1.01200
O1767       O  0.69116304  0.24233174  0.42940090    -0.79280
O1768       O  0.66927325  0.16578041  0.43830784    -0.79460
C1769       C  0.67609656  0.15856942  0.47248902     1.01150
O1770       O  0.91899520  0.11865900  0.46371233    -0.86790
O1771       O  0.89401992  0.15590271  0.50902181    -0.83850
C1772       C  0.88872845  0.18167788  0.52227073     0.96690
O1773       O  0.91567164  0.21613886  0.52116708    -0.83880
O1774       O  0.91403198  0.22546448  0.44083472    -0.86480
C1775       C  0.92234585  0.22642640  0.40532179     1.01160
O1776       O  0.95006681  0.22158456  0.39446320    -0.79300
O1777       O  0.92981171  0.14793124  0.40677153    -0.79450
C1778       C  0.91189353  0.11875573  0.42748246     1.01130
Cr1779     Cr  0.94485484  0.16198489  0.50270053     1.93740
Cr1780     Cr  0.95591754  0.23982109  0.47829660     1.93210
Cr1781     Cr  0.97575632  0.19478829  0.42071486     1.39100
O1782       O  0.95837499  0.19810346  0.46702190    -1.24540
O1783       O  0.83581652  0.00507903  0.33546658    -0.86790
O1784       O  0.79723195  0.02777540  0.29024795    -0.83840
C1785       C  0.76255410  0.00067270  0.29398500     0.96670
O1786       O  0.74254243  0.99968030  0.32248230    -0.83870
O1787       O  0.72286727  0.33559897  0.39805363    -0.86510
C1788       C  0.72455759  0.30669966  0.40977953     1.01200
O1789       O  0.75563556  0.30678547  0.40750227    -0.79280
O1790       O  0.83217093  0.32862380  0.39861981    -0.79460
C1791       C  0.83943173  0.32184210  0.36443675     1.01150
O1792       O  0.87934887  0.07897225  0.37327403    -0.86790
O1793       O  0.84214127  0.10395282  0.32794446    -0.83850
C1794       C  0.81638136  0.10923683  0.31464634     0.96690
O1795       O  0.78192157  0.08229228  0.31573051    -0.83880
O1796       O  0.77254211  0.08393997  0.39606824    -0.86480
C1797       C  0.77156202  0.07563133  0.43158668     1.01160
O1798       O  0.77639887  0.04790543  0.44245750    -0.79300
O1799       O  0.85004917  0.06810523  0.43020402    -0.79450
C1800       C  0.87922675  0.08605793  0.40950449     1.01130
Cr1801     Cr  0.83605873  0.05312013  0.33425802     1.93740
Cr1802     Cr  0.75821055  0.04205107  0.35860459     1.93210
Cr1803     Cr  0.80318659  0.02217823  0.41621898     1.39100
O1804       O  0.79991471  0.03958490  0.36991238    -1.24540
O1805       O  0.82914801  0.32509114  0.66809436    -0.86790
O1806       O  0.76784935  0.30235941  0.71330604    -0.83840
C1807       C  0.76027390  0.32946204  0.70958808     0.96670
O1808       O  0.74127471  0.33048143  0.68108778    -0.83870
O1809       O  0.71903810  0.99460869  0.60551020    -0.86510
C1810       C  0.74962795  0.02351075  0.59378628     1.01200
O1811       O  0.78062107  0.02342545  0.59606804    -0.79280
O1812       O  0.83531559  0.00157502  0.60494567    -0.79460
C1813       C  0.84934749  0.00833388  0.63913257     1.01150
O1814       O  0.79880590  0.25122615  0.63025154    -0.86790
O1815       O  0.73659990  0.22621120  0.67558287    -0.83850
C1816       C  0.70556191  0.22092895  0.68890352     0.96690
O1817       O  0.69803731  0.24786853  0.68780486    -0.83880
O1818       O  0.68703727  0.24626086  0.60746452    -0.86480
C1819       C  0.69437240  0.25458039  0.57194914     1.01160
O1820       O  0.72693560  0.28231397  0.56108602    -0.79300
O1821       O  0.78038549  0.26211192  0.57332640    -0.79450
C1822       C  0.79160621  0.24415349  0.59401993     1.01130
Cr1823     Cr  0.78135074  0.27704912  0.66928107     1.93740
Cr1824     Cr  0.71458258  0.28813296  0.64494417     1.93210
Cr1825     Cr  0.77944654  0.30803259  0.58733350     1.39100
O1826       O  0.75875427  0.29060348  0.63363406    -1.24540
O1827       O  0.82910072  0.16795548  0.50206224    -0.86790
O1828       O  0.76779429  0.12936642  0.45684727    -0.83840
C1829       C  0.76020691  0.09468652  0.46060060     0.96670
O1830       O  0.74120283  0.07469635  0.48911575    -0.83870
O1831       O  0.71901969  0.05507670  0.56471114    -0.86510
C1832       C  0.74962128  0.05679323  0.57644184     1.01200
O1833       O  0.78060396  0.08788335  0.57415638    -0.79280
O1834       O  0.83526024  0.16444538  0.56523023    -0.79460
C1835       C  0.84929686  0.17164470  0.53104848     1.01150
O1836       O  0.79878313  0.21155397  0.53981515    -0.86790
O1837       O  0.73656291  0.17431394  0.49450757    -0.83850
C1838       C  0.70549236  0.14853598  0.48127090     0.96690
O1839       O  0.69796562  0.11407231  0.48239084    -0.83880
O1840       O  0.68699547  0.10473800  0.56272886    -0.86480
C1841       C  0.69434771  0.10377398  0.59824141     1.01160
O1842       O  0.72691594  0.10862698  0.60909093    -0.79300
O1843       O  0.78030091  0.18228065  0.59675365    -0.79450
C1844       C  0.79157198  0.21145673  0.57604179     1.01130
Cr1845     Cr  0.78130985  0.16822362  0.50083331     1.93740
Cr1846     Cr  0.71453141  0.09038929  0.52525413     1.93210
Cr1847     Cr  0.77940040  0.13542847  0.58282697     1.39100
O1848       O  0.75870583  0.13210774  0.53651951    -1.24540
O1849       O  0.67305847  0.50125008  0.00150656    -0.86790
O1850       O  0.69575527  0.46264871  0.04672132    -0.83840
C1851       C  0.66865769  0.42796928  0.04297487     0.96670
O1852       O  0.66766969  0.40797065  0.01446796    -0.83870
O1853       O  0.00356668  0.38833480  0.93888120    -0.86510
C1854       C  0.97468159  0.39004951  0.92715197     1.01200
O1855       O  0.97478417  0.42113703  0.92944257    -0.79280
O1856       O  0.99667605  0.49769033  0.93834503    -0.79460
C1857       C  0.98986102  0.50491222  0.97252690     1.01150
O1858       O  0.74696758  0.54481527  0.96372756    -0.86790
O1859       O  0.77193709  0.50757704  0.00904412    -0.83850
C1860       C  0.77722568  0.48180372  0.02230126     0.96690
O1861       O  0.75028420  0.44734148  0.02119595    -0.83880
O1862       O  0.75191278  0.43799306  0.94085856    -0.86480
C1863       C  0.74359534  0.43702502  0.90534591     1.01160
O1864       O  0.71587893  0.44187564  0.89449197    -0.79300
O1865       O  0.73613799  0.51553394  0.90679127    -0.79450
C1866       C  0.75406546  0.54471087  0.92749688     1.01130
Cr1867     Cr  0.72110548  0.50149821  0.00272565     1.93740
Cr1868     Cr  0.71003288  0.42365329  0.97833271     1.93210
Cr1869     Cr  0.69019259  0.46867938  0.92074763     1.39100
O1870       O  0.70757911  0.46537174  0.96705275    -1.24540
O1871       O  0.83015582  0.65837800  0.83546642    -0.86790
O1872       O  0.86874567  0.63567701  0.79025073    -0.83840
C1873       C  0.90342284  0.66278225  0.79398060     0.96670
O1874       O  0.92343403  0.66378012  0.82247926    -0.83870
O1875       O  0.94310081  0.32788164  0.89806246    -0.86510
C1876       C  0.94140005  0.35677396  0.90979694     1.01200
O1877       O  0.91031977  0.35668359  0.90751316    -0.79280
O1878       O  0.83377172  0.33482004  0.89862029    -0.79460
C1879       C  0.82651457  0.34160026  0.86443576     1.01030
O1880       O  0.78662041  0.58448849  0.87328282    -0.86790
O1881       O  0.82383427  0.55950585  0.82796066    -0.83850
C1882       C  0.84959389  0.55421691  0.81466849     0.96690
O1883       O  0.88405665  0.58115776  0.81575764    -0.83880
O1884       O  0.89343859  0.57953682  0.89609675    -0.86480
C1885       C  0.89441139  0.58784890  0.93161362     1.01160
O1886       O  0.88956899  0.61557350  0.94247579    -0.79300
O1887       O  0.81591586  0.59534924  0.93021068    -0.79450
C1888       C  0.78673843  0.57740126  0.90951334     1.01130
Cr1889     Cr  0.82991632  0.61033807  0.83426566     1.93740
Cr1890     Cr  0.90776561  0.62141642  0.85861892     1.93210
Cr1891     Cr  0.86277244  0.64128377  0.91622652     1.39100
O1892       O  0.86605694  0.62387855  0.86992159    -1.24540
O1893       O  0.83010328  0.50220425  0.33482165    -0.86790
O1894       O  0.86863722  0.56352211  0.38003136    -0.83840
C1895       C  0.90331336  0.57110653  0.37629603     0.96670
O1896       O  0.92331823  0.59009601  0.34778342    -0.83870
O1897       O  0.94299412  0.61227927  0.27219701    -0.86510
C1898       C  0.94129401  0.58167859  0.26047636     1.01200
O1899       O  0.91020559  0.55069203  0.26275347    -0.79280
O1900       O  0.83363944  0.49602579  0.27165920    -0.79460
C1901       C  0.82642290  0.48199887  0.30584525     1.01150
O1902       O  0.78651354  0.53248670  0.29702408    -0.86790
O1903       O  0.82370698  0.59472617  0.34234071    -0.83850
C1904       C  0.84947275  0.62578603  0.35561725     0.96690
O1905       O  0.88394069  0.63332706  0.35448314    -0.83880
O1906       O  0.89331239  0.64429064  0.27414440    -0.86480
C1907       C  0.89429608  0.63694129  0.23863495     1.01160
O1908       O  0.88946294  0.60437632  0.22778827    -0.79300
O1909       O  0.81580770  0.55097244  0.24009506    -0.79450
C1910       C  0.78662623  0.53970052  0.26079879     1.01130
Cr1911     Cr  0.82981471  0.54998396  0.33602583     1.93740
Cr1912     Cr  0.90765041  0.61676393  0.31163152     1.93210
Cr1913     Cr  0.86265778  0.55188624  0.25405296     1.39100
O1914       O  0.86594633  0.57258636  0.30035391    -1.24540
O1915       O  0.67297914  0.50216323  0.16880147    -0.86790
O1916       O  0.69573282  0.56347080  0.12358833    -0.83840
C1917       C  0.66863912  0.57105471  0.12731932     0.96670
O1918       O  0.66762397  0.59004654  0.15583100    -0.83870
O1919       O  0.00349090  0.61226538  0.23141733    -0.86510
C1920       C  0.97458978  0.58167419  0.24314615     1.01200
O1921       O  0.97468168  0.55068102  0.24087239    -0.79280
O1922       O  0.99654737  0.49599297  0.23195841    -0.79460
C1923       C  0.98975927  0.48196349  0.19777149     1.01150
O1924       O  0.74685091  0.53247317  0.20660331    -0.86790
O1925       O  0.77187789  0.59469549  0.16128108    -0.83850
C1926       C  0.77716568  0.62574695  0.14798818     0.96690
O1927       O  0.75023321  0.63328015  0.14911234    -0.83880
O1928       O  0.75184448  0.64426845  0.22945310    -0.86480
C1929       C  0.74352165  0.63693097  0.26496707     1.01160
O1930       O  0.71579474  0.60436369  0.27582555    -0.79300
O1931       O  0.73600883  0.55092698  0.26353376    -0.79450
C1932       C  0.75394204  0.53968351  0.24282972     1.01130
Cr1933     Cr  0.72103356  0.54995040  0.16759831     1.93740
Cr1934     Cr  0.70997048  0.61672876  0.19197487     1.93210
Cr1935     Cr  0.69008281  0.55185929  0.24956899     1.39100
O1936       O  0.70749716  0.57255252  0.20326488    -1.24540
O1937       O  0.83678501  0.33837604  0.16812738    -0.86790
O1938       O  0.89807797  0.36109589  0.21333802    -0.83840
C1939       C  0.90565712  0.33399686  0.20960682     0.96670
O1940       O  0.92466267  0.33298955  0.18110449    -0.83870
O1941       O  0.94691208  0.66888765  0.10552974    -0.86510
C1942       C  0.91632337  0.63998539  0.09380837     1.01200
O1943       O  0.88533010  0.64007050  0.09608967    -0.79280
O1944       O  0.83063269  0.66191062  0.10497604    -0.79460
C1945       C  0.81659463  0.65513591  0.13916115     1.01150
O1946       O  0.86713374  0.41225843  0.13031010    -0.86790
O1947       O  0.92933220  0.43725690  0.17564191    -0.83850
C1948       C  0.96037200  0.44253657  0.18895098     0.96690
O1949       O  0.96789372  0.41559592  0.18784781    -0.83880
O1950       O  0.97890972  0.41723469  0.10750625    -0.86480
C1951       C  0.97157951  0.40892064  0.07198981     1.01160
O1952       O  0.93901631  0.38119180  0.06112420    -0.79300
O1953       O  0.88556190  0.40138554  0.07338010    -0.79450
C1954       C  0.87433797  0.41933884  0.09407925     1.01130
Cr1955     Cr  0.88458227  0.38642077  0.16932715     1.93740
Cr1956     Cr  0.95135871  0.37534976  0.14497506     1.93210
Cr1957     Cr  0.88650277  0.35546358  0.08736934     1.39100
O1958       O  0.90718700  0.37288032  0.13367205    -1.24540
O1959       O  0.83685797  0.49552754  0.00210609    -0.86790
O1960       O  0.89817102  0.53411531  0.95689201    -0.83840
C1961       C  0.90575960  0.56879654  0.96063685     0.96670
O1962       O  0.92475701  0.58878924  0.98915216    -0.83870
O1963       O  0.94693330  0.60841338  0.06474781    -0.86510
C1964       C  0.91633084  0.60670088  0.07647193     1.01200
O1965       O  0.88534739  0.57561192  0.07418902    -0.79280
O1966       O  0.83068689  0.49905048  0.06527144    -0.79460
C1967       C  0.81665597  0.49184131  0.03108842     1.01150
O1968       O  0.86717010  0.45193769  0.03987426    -0.86790
O1969       O  0.92939818  0.48917180  0.99456610    -0.83850
C1970       C  0.96046599  0.51494705  0.98131773     0.96690
O1971       O  0.96799264  0.54941087  0.98243537    -0.83880
O1972       O  0.97894922  0.55874542  0.06277339    -0.86480
C1973       C  0.97159366  0.55970811  0.09828593     1.01160
O1974       O  0.93902784  0.55486482  0.10913639    -0.79300
O1975       O  0.88563557  0.48121140  0.09681270    -0.79450
C1976       C  0.87437122  0.45203533  0.07610263     1.01130
Cr1977     Cr  0.88464933  0.49526216  0.00088513     1.93740
Cr1978     Cr  0.95142243  0.57309684  0.02529604     1.93210
Cr1979     Cr  0.88654488  0.52806577  0.08287214     1.39100
O1980       O  0.90724626  0.53138095  0.03656627    -1.24540
O1981       O  0.83584450  0.49457150  0.83483829    -0.86790
O1982       O  0.79729820  0.43324846  0.88004476    -0.83840
C1983       C  0.76262321  0.42566873  0.87631500     0.96670
O1984       O  0.74261786  0.40668028  0.84780292    -0.83870
O1985       O  0.72294651  0.38451482  0.77220471    -0.86510
C1986       C  0.72465699  0.41511693  0.76047033     1.01200
O1987       O  0.75574655  0.44610207  0.76275763    -0.79280
O1988       O  0.83232257  0.50075938  0.77167658    -0.79460
C1989       C  0.83954126  0.51478429  0.80586359     1.01150
O1990       O  0.87942954  0.46428370  0.79703198    -0.86790
O1991       O  0.84222676  0.40204396  0.84234220    -0.83850
C1992       C  0.81646145  0.37098116  0.85561373     0.96690
O1993       O  0.78199093  0.36343465  0.85447643    -0.83880
O1994       O  0.77261344  0.35248600  0.77413485    -0.86480
C1995       C  0.77163619  0.35984414  0.73862665     1.01160
O1996       O  0.77648063  0.39241518  0.72778841    -0.79300
O1997       O  0.85013850  0.44580208  0.74010496    -0.79450
C1998       C  0.87931920  0.45707246  0.76080595     1.01130
Cr1999     Cr  0.83612321  0.44678687  0.83603480     1.93740
Cr2000     Cr  0.75828344  0.38001398  0.81163576     1.93210
Cr2001     Cr  0.80329264  0.44489956  0.75406277     1.39100
O2002       O  0.79999300  0.42419128  0.80036206    -1.24540
O2003       O  0.99295530  0.49462998  0.66876995    -0.86790
O2004       O  0.97020092  0.43332434  0.62355748    -0.83840
C2005       C  0.99729874  0.42574602  0.62727759     0.96670
O2006       O  0.99831915  0.40675117  0.65578365    -0.83870
O2007       O  0.66247572  0.38453350  0.73137338    -0.86510
C2008       C  0.69137151  0.41512373  0.74311251     1.01200
O2009       O  0.69128032  0.44611686  0.74082983    -0.79280
O2010       O  0.66940514  0.50080236  0.73192260    -0.79460
C2011       C  0.67618026  0.51483256  0.69773465     1.01150
O2012       O  0.91909145  0.46430893  0.70660038    -0.86790
O2013       O  0.89406493  0.40209360  0.66127362    -0.83850
C2014       C  0.88877715  0.37104598  0.64797079     0.96690
O2015       O  0.91570589  0.36350624  0.64909572    -0.83880
O2016       O  0.91412115  0.35251664  0.72944144    -0.86480
C2017       C  0.92245108  0.35985654  0.76495402     1.01160
O2018       O  0.95017510  0.39242880  0.77580402    -0.79300
O2019       O  0.92994900  0.44586039  0.76352407    -0.79450
C2020       C  0.91200647  0.45709722  0.74282808     1.01130
Cr2021     Cr  0.94490617  0.44683853  0.66758153     1.93740
Cr2022     Cr  0.95598322  0.38006362  0.69194426     1.93210
Cr2023     Cr  0.97587688  0.44493407  0.74954029     1.39100
O2024       O  0.95845338  0.42423811  0.70323986    -1.24540
O2025       O  0.99290696  0.49557477  0.50147290    -0.86790
O2026       O  0.97020423  0.53417794  0.54668650    -0.83840
C2027       C  0.99729892  0.56885861  0.54293410     0.96670
O2028       O  0.99828549  0.58885126  0.51442305    -0.83870
O2029       O  0.66237831  0.60846700  0.43883663    -0.86510
C2030       C  0.69126721  0.60675367  0.42711566     1.01200
O2031       O  0.69116304  0.57566508  0.42940090    -0.79280
O2032       O  0.66927324  0.49911374  0.43830784    -0.79460
C2033       C  0.67609656  0.49190275  0.47248902     1.01150
O2034       O  0.91899520  0.45199234  0.46371233    -0.86790
O2035       O  0.89401992  0.48923604  0.50902181    -0.83850
C2036       C  0.88872845  0.51501121  0.52227073     0.96690
O2037       O  0.91567163  0.54947219  0.52116707    -0.83880
O2038       O  0.91403197  0.55879782  0.44083472    -0.86480
C2039       C  0.92234585  0.55975973  0.40532178     1.01160
O2040       O  0.95006681  0.55491789  0.39446319    -0.79300
O2041       O  0.92981171  0.48126457  0.40677153    -0.79450
C2042       C  0.91189353  0.45208907  0.42748246     1.01130
Cr2043     Cr  0.94485484  0.49531823  0.50270053     1.93740
Cr2044     Cr  0.95591754  0.57315442  0.47829660     1.93210
Cr2045     Cr  0.97575632  0.52812162  0.42071486     1.39100
O2046       O  0.95837498  0.53143680  0.46702190    -1.24540
O2047       O  0.83581652  0.33841236  0.33546659    -0.86790
O2048       O  0.79723195  0.36110873  0.29024795    -0.83840
C2049       C  0.76255410  0.33400602  0.29398500     0.96670
O2050       O  0.74254243  0.33301363  0.32248230    -0.83870
O2051       O  0.72286727  0.66893231  0.39805363    -0.86510
C2052       C  0.72455759  0.64003300  0.40977952     1.01200
O2053       O  0.75563556  0.64011880  0.40750226    -0.79280
O2054       O  0.83217093  0.66195713  0.39861980    -0.79460
C2055       C  0.83943172  0.65517543  0.36443674     1.01150
O2056       O  0.87934887  0.41230558  0.37327403    -0.86790
O2057       O  0.84214127  0.43728615  0.32794446    -0.83850
C2058       C  0.81638135  0.44257016  0.31464633     0.96690
O2059       O  0.78192156  0.41562561  0.31573051    -0.83880
O2060       O  0.77254210  0.41727330  0.39606823    -0.86480
C2061       C  0.77156202  0.40896466  0.43158668     1.01160
O2062       O  0.77639886  0.38123877  0.44245750    -0.79300
O2063       O  0.85004917  0.40143857  0.43020402    -0.79450
C2064       C  0.87922675  0.41939127  0.40950449     1.01130
Cr2065     Cr  0.83605873  0.38645346  0.33425802     1.93740
Cr2066     Cr  0.75821055  0.37538440  0.35860459     1.93210
Cr2067     Cr  0.80318659  0.35551156  0.41621898     1.39100
O2068       O  0.79991470  0.37291823  0.36991238    -1.24540
O2069       O  0.82914801  0.65842447  0.66809436    -0.86790
O2070       O  0.76784935  0.63569274  0.71330603    -0.83840
C2071       C  0.76027391  0.66279538  0.70958808     0.96670
O2072       O  0.74127472  0.66381477  0.68108778    -0.83870
O2073       O  0.71903810  0.32794202  0.60551021    -0.86510
C2074       C  0.74962795  0.35684408  0.59378628     1.01200
O2075       O  0.78062106  0.35675878  0.59606804    -0.79280
O2076       O  0.83531559  0.33490835  0.60494567    -0.79460
C2077       C  0.84934749  0.34166721  0.63913257     1.01150
O2078       O  0.79880590  0.58455948  0.63025154    -0.86790
O2079       O  0.73659990  0.55954453  0.67558286    -0.83850
C2080       C  0.70556191  0.55426229  0.68890352     0.96690
O2081       O  0.69803732  0.58120187  0.68780486    -0.83880
O2082       O  0.68703727  0.57959419  0.60746452    -0.86480
C2083       C  0.69437240  0.58791373  0.57194914     1.01160
O2084       O  0.72693560  0.61564731  0.56108601    -0.79300
O2085       O  0.78038549  0.59544525  0.57332639    -0.79450
C2086       C  0.79160621  0.57748682  0.59401992     1.01130
Cr2087     Cr  0.78135074  0.61038245  0.66928107     1.93740
Cr2088     Cr  0.71458258  0.62146630  0.64494416     1.93210
Cr2089     Cr  0.77944654  0.64136593  0.58733349     1.39100
O2090       O  0.75875427  0.62393681  0.63363405    -1.24540
O2091       O  0.82910071  0.50128881  0.50206223    -0.86790
O2092       O  0.76779428  0.46269975  0.45684727    -0.83840
C2093       C  0.76020690  0.42801985  0.46060059     0.96670
O2094       O  0.74120283  0.40802968  0.48911574    -0.83870
O2095       O  0.71901968  0.38841003  0.56471114    -0.86510
C2096       C  0.74962128  0.39012656  0.57644184     1.01200
O2097       O  0.78060396  0.42121668  0.57415638    -0.79280
O2098       O  0.83526023  0.49777871  0.56523023    -0.79460
C2099       C  0.84929685  0.50497803  0.53104848     1.01150
O2100       O  0.79878313  0.54488730  0.53981515    -0.86790
O2101       O  0.73656291  0.50764727  0.49450757    -0.83850
C2102       C  0.70549236  0.48186932  0.48127089     0.96690
O2103       O  0.69796561  0.44740564  0.48239084    -0.83880
O2104       O  0.68699546  0.43807133  0.56272886    -0.86480
C2105       C  0.69434771  0.43710731  0.59824141     1.01160
O2106       O  0.72691594  0.44196031  0.60909093    -0.79300
O2107       O  0.78030091  0.51561398  0.59675365    -0.79450
C2108       C  0.79157198  0.54479006  0.57604178     1.01130
Cr2109     Cr  0.78130985  0.50155695  0.50083331     1.93740
Cr2110     Cr  0.71453141  0.42372263  0.52525413     1.93210
Cr2111     Cr  0.77940039  0.46876180  0.58282697     1.39100
O2112       O  0.75870582  0.46544107  0.53651951    -1.24540
O2113       O  0.67305847  0.83458341  0.00150656    -0.86790
O2114       O  0.69575527  0.79598204  0.04672132    -0.83840
C2115       C  0.66865769  0.76130261  0.04297487     0.96670
O2116       O  0.66766969  0.74130398  0.01446795    -0.83870
O2117       O  0.00356668  0.72166813  0.93888120    -0.86510
C2118       C  0.97468159  0.72338284  0.92715197     1.01200
O2119       O  0.97478417  0.75447036  0.92944257    -0.79280
O2120       O  0.99667605  0.83102365  0.93834503    -0.79460
C2121       C  0.98986103  0.83824555  0.97252690     1.01150
O2122       O  0.74696759  0.87814860  0.96372756    -0.86790
O2123       O  0.77193710  0.84091037  0.00904412    -0.83850
C2124       C  0.77722568  0.81513706  0.02230126     0.96690
O2125       O  0.75028420  0.78067481  0.02119595    -0.83880
O2126       O  0.75191278  0.77132640  0.94085856    -0.86480
C2127       C  0.74359534  0.77035835  0.90534591     1.01160
O2128       O  0.71587893  0.77520897  0.89449196    -0.79300
O2129       O  0.73613799  0.84886727  0.90679127    -0.79450
C2130       C  0.75406546  0.87804420  0.92749688     1.01130
Cr2131     Cr  0.72110548  0.83483155  0.00272565     1.93740
Cr2132     Cr  0.71003289  0.75698662  0.97833271     1.93210
Cr2133     Cr  0.69019260  0.80201272  0.92074763     1.39100
O2134       O  0.70757911  0.79870507  0.96705275    -1.24540
O2135       O  0.83015583  0.99171133  0.83546642    -0.86790
O2136       O  0.86874567  0.96901035  0.79025073    -0.83840
C2137       C  0.90342284  0.99611559  0.79398060     0.96670
O2138       O  0.92343404  0.99711346  0.82247926    -0.83870
O2139       O  0.94310081  0.66121497  0.89806245    -0.86510
C2140       C  0.94140006  0.69010729  0.90979694     1.01200
O2141       O  0.91031977  0.69001692  0.90751315    -0.79280
O2142       O  0.83377172  0.66815337  0.89862029    -0.79460
C2143       C  0.82651457  0.67493359  0.86443576     1.01030
O2144       O  0.78662041  0.91782183  0.87328282    -0.86790
O2145       O  0.82383428  0.89283919  0.82796066    -0.83850
C2146       C  0.84959390  0.88755024  0.81466848     0.96690
O2147       O  0.88405666  0.91449110  0.81575764    -0.83880
O2148       O  0.89343860  0.91287015  0.89609675    -0.86480
C2149       C  0.89441140  0.92118224  0.93161361     1.01160
O2150       O  0.88956900  0.94890683  0.94247579    -0.79300
O2151       O  0.81591586  0.92868257  0.93021068    -0.79450
C2152       C  0.78673844  0.91073459  0.90951334     1.01130
Cr2153     Cr  0.82991633  0.94367141  0.83426566     1.93740
Cr2154     Cr  0.90776562  0.95474975  0.85861892     1.93210
Cr2155     Cr  0.86277244  0.97461710  0.91622652     1.39100
O2156       O  0.86605695  0.95721188  0.86992159    -1.24540
O2157       O  0.83010328  0.83553758  0.33482165    -0.86790
O2158       O  0.86863722  0.89685545  0.38003136    -0.83840
C2159       C  0.90331336  0.90443986  0.37629603     0.96670
O2160       O  0.92331823  0.92342934  0.34778342    -0.83870
O2161       O  0.94299412  0.94561260  0.27219701    -0.86510
C2162       C  0.94129401  0.91501192  0.26047636     1.01200
O2163       O  0.91020559  0.88402536  0.26275347    -0.79280
O2164       O  0.83363944  0.82935912  0.27165920    -0.79460
C2165       C  0.82642291  0.81533220  0.30584525     1.01150
O2166       O  0.78651354  0.86582003  0.29702408    -0.86790
O2167       O  0.82370698  0.92805950  0.34234071    -0.83850
C2168       C  0.84947275  0.95911937  0.35561725     0.96690
O2169       O  0.88394069  0.96666040  0.35448314    -0.83880
O2170       O  0.89331239  0.97762397  0.27414439    -0.86480
C2171       C  0.89429608  0.97027462  0.23863495     1.01160
O2172       O  0.88946294  0.93770965  0.22778826    -0.79300
O2173       O  0.81580770  0.88430578  0.24009506    -0.79450
C2174       C  0.78662623  0.87303385  0.26079879     1.01130
Cr2175     Cr  0.82981471  0.88331730  0.33602583     1.93740
Cr2176     Cr  0.90765041  0.95009727  0.31163152     1.93210
Cr2177     Cr  0.86265778  0.88521958  0.25405296     1.39100
O2178       O  0.86594634  0.90591970  0.30035390    -1.24540
O2179       O  0.67297914  0.83549657  0.16880148    -0.86790
O2180       O  0.69573282  0.89680413  0.12358833    -0.83840
C2181       C  0.66863912  0.90438805  0.12731932     0.96670
O2182       O  0.66762397  0.92337988  0.15583100    -0.83870
O2183       O  0.00349090  0.94559872  0.23141733    -0.86510
C2184       C  0.97458978  0.91500752  0.24314615     1.01200
O2185       O  0.97468168  0.88401435  0.24087239    -0.79280
O2186       O  0.99654737  0.82932630  0.23195841    -0.79460
C2187       C  0.98975927  0.81529683  0.19777149     1.01150
O2188       O  0.74685091  0.86580650  0.20660332    -0.86790
O2189       O  0.77187789  0.92802882  0.16128109    -0.83850
C2190       C  0.77716568  0.95908029  0.14798818     0.96690
O2191       O  0.75023320  0.96661348  0.14911234    -0.83880
O2192       O  0.75184448  0.97760178  0.22945310    -0.86480
C2193       C  0.74352165  0.97026430  0.26496707     1.01160
O2194       O  0.71579474  0.93769702  0.27582555    -0.79300
O2195       O  0.73600883  0.88426031  0.26353377    -0.79450
C2196       C  0.75394204  0.87301684  0.24282972     1.01130
Cr2197     Cr  0.72103355  0.88328374  0.16759831     1.93740
Cr2198     Cr  0.70997048  0.95006210  0.19197487     1.93210
Cr2199     Cr  0.69008281  0.88519262  0.24956899     1.39100
O2200       O  0.70749716  0.90588585  0.20326489    -1.24540
O2201       O  0.83678501  0.67170938  0.16812738    -0.86790
O2202       O  0.89807797  0.69442922  0.21333801    -0.83840
C2203       C  0.90565712  0.66733019  0.20960682     0.96670
O2204       O  0.92466268  0.66632288  0.18110448    -0.83870
O2205       O  0.94691208  0.00222098  0.10552973    -0.86510
C2206       C  0.91632337  0.97331873  0.09380836     1.01200
O2207       O  0.88533010  0.97340383  0.09608967    -0.79280
O2208       O  0.83063268  0.99524396  0.10497604    -0.79460
C2209       C  0.81659463  0.98846924  0.13916115     1.01150
O2210       O  0.86713374  0.74559177  0.13031010    -0.86790
O2211       O  0.92933220  0.77059023  0.17564191    -0.83850
C2212       C  0.96037201  0.77586990  0.18895098     0.96690
O2213       O  0.96789372  0.74892925  0.18784781    -0.83880
O2214       O  0.97890973  0.75056803  0.10750625    -0.86480
C2215       C  0.97157951  0.74225398  0.07198981     1.01160
O2216       O  0.93901632  0.71452514  0.06112420    -0.79300
O2217       O  0.88556190  0.73471888  0.07338010    -0.79450
C2218       C  0.87433797  0.75267218  0.09407925     1.01130
Cr2219     Cr  0.88458227  0.71975410  0.16932714     1.93740
Cr2220     Cr  0.95135872  0.70868310  0.14497506     1.93210
Cr2221     Cr  0.88650278  0.68879691  0.08736934     1.39100
O2222       O  0.90718701  0.70621365  0.13367205    -1.24540
O2223       O  0.83685797  0.82886087  0.00210609    -0.86790
O2224       O  0.89817103  0.86744864  0.95689201    -0.83840
C2225       C  0.90575960  0.90212988  0.96063685     0.96670
O2226       O  0.92475701  0.92212258  0.98915216    -0.83870
O2227       O  0.94693330  0.94174671  0.06474780    -0.86510
C2228       C  0.91633084  0.94003422  0.07647193     1.01200
O2229       O  0.88534739  0.90894525  0.07418902    -0.79280
O2230       O  0.83068689  0.83238381  0.06527144    -0.79460
C2231       C  0.81665598  0.82517464  0.03108842     1.01150
O2232       O  0.86717010  0.78527102  0.03987426    -0.86790
O2233       O  0.92939818  0.82250514  0.99456610    -0.83850
C2234       C  0.96046600  0.84828038  0.98131773     0.96690
O2235       O  0.96799264  0.88274420  0.98243537    -0.83880
O2236       O  0.97894922  0.89207875  0.06277339    -0.86480
C2237       C  0.97159366  0.89304144  0.09828593     1.01160
O2238       O  0.93902784  0.88819815  0.10913639    -0.79300
O2239       O  0.88563557  0.81454474  0.09681270    -0.79450
C2240       C  0.87437122  0.78536866  0.07610263     1.01130
Cr2241     Cr  0.88464933  0.82859549  0.00088513     1.93740
Cr2242     Cr  0.95142243  0.90643017  0.02529604     1.93210
Cr2243     Cr  0.88654488  0.86139910  0.08287214     1.39100
O2244       O  0.90724626  0.86471428  0.03656627    -1.24540
O2245       O  0.83584451  0.82790484  0.83483828    -0.86790
O2246       O  0.79729820  0.76658180  0.88004475    -0.83840
C2247       C  0.76262322  0.75900206  0.87631500     0.96670
O2248       O  0.74261786  0.74001362  0.84780292    -0.83870
O2249       O  0.72294652  0.71784816  0.77220470    -0.86510
C2250       C  0.72465699  0.74845027  0.76047033     1.01200
O2251       O  0.75574655  0.77943541  0.76275763    -0.79280
O2252       O  0.83232257  0.83409272  0.77167657    -0.79460
C2253       C  0.83954126  0.84811763  0.80586359     1.01150
O2254       O  0.87942954  0.79761703  0.79703198    -0.86790
O2255       O  0.84222676  0.73537729  0.84234220    -0.83850
C2256       C  0.81646146  0.70431449  0.85561373     0.96690
O2257       O  0.78199093  0.69676799  0.85447643    -0.83880
O2258       O  0.77261344  0.68581934  0.77413484    -0.86480
C2259       C  0.77163619  0.69317748  0.73862665     1.01160
O2260       O  0.77648064  0.72574852  0.72778841    -0.79300
O2261       O  0.85013851  0.77913542  0.74010496    -0.79450
C2262       C  0.87931920  0.79040580  0.76080594     1.01130
Cr2263     Cr  0.83612321  0.78012021  0.83603479     1.93740
Cr2264     Cr  0.75828345  0.71334732  0.81163576     1.93210
Cr2265     Cr  0.80329265  0.77823289  0.75406277     1.39100
O2266       O  0.79999300  0.75752462  0.80036205    -1.24540
O2267       O  0.99295531  0.82796331  0.66876994    -0.86790
O2268       O  0.97020092  0.76665767  0.62355748    -0.83840
C2269       C  0.99729874  0.75907935  0.62727759     0.96670
O2270       O  0.99831915  0.74008450  0.65578365    -0.83870
O2271       O  0.66247573  0.71786683  0.73137338    -0.86510
C2272       C  0.69137152  0.74845706  0.74311251     1.01200
O2273       O  0.69128033  0.77945020  0.74082983    -0.79280
O2274       O  0.66940514  0.83413570  0.73192260    -0.79460
C2275       C  0.67618027  0.84816590  0.69773465     1.01150
O2276       O  0.91909145  0.79764226  0.70660037    -0.86790
O2277       O  0.89406493  0.73542693  0.66127362    -0.83850
C2278       C  0.88877715  0.70437931  0.64797079     0.96690
O2279       O  0.91570589  0.69683957  0.64909572    -0.83880
O2280       O  0.91412115  0.68584997  0.72944144    -0.86480
C2281       C  0.92245108  0.69318987  0.76495401     1.01160
O2282       O  0.95017510  0.72576213  0.77580402    -0.79300
O2283       O  0.92994900  0.77919372  0.76352406    -0.79450
C2284       C  0.91200648  0.79043056  0.74282808     1.01130
Cr2285     Cr  0.94490617  0.78017186  0.66758153     1.93740
Cr2286     Cr  0.95598322  0.71339696  0.69194426     1.93210
Cr2287     Cr  0.97587688  0.77826740  0.74954029     1.39100
O2288       O  0.95845339  0.75757144  0.70323986    -1.24540
O2289       O  0.99290696  0.82890810  0.50147290    -0.86790
O2290       O  0.97020423  0.86751127  0.54668649    -0.83840
C2291       C  0.99729892  0.90219194  0.54293409     0.96670
O2292       O  0.99828549  0.92218459  0.51442305    -0.83870
O2293       O  0.66237831  0.94180033  0.43883663    -0.86510
C2294       C  0.69126721  0.94008701  0.42711566     1.01200
O2295       O  0.69116304  0.90899841  0.42940090    -0.79280
O2296       O  0.66927324  0.83244708  0.43830784    -0.79460
C2297       C  0.67609656  0.82523609  0.47248902     1.01150
O2298       O  0.91899520  0.78532567  0.46371233    -0.86790
O2299       O  0.89401992  0.82256937  0.50902180    -0.83850
C2300       C  0.88872845  0.84834454  0.52227072     0.96690
O2301       O  0.91567163  0.88280552  0.52116707    -0.83880
O2302       O  0.91403197  0.89213115  0.44083471    -0.86480
C2303       C  0.92234585  0.89309306  0.40532178     1.01160
O2304       O  0.95006681  0.88825123  0.39446319    -0.79300
O2305       O  0.92981171  0.81459790  0.40677153    -0.79450
C2306       C  0.91189353  0.78542240  0.42748245     1.01130
Cr2307     Cr  0.94485484  0.82865156  0.50270053     1.93740
Cr2308     Cr  0.95591754  0.90648775  0.47829660     1.93210
Cr2309     Cr  0.97575632  0.86145495  0.42071485     1.39100
O2310       O  0.95837499  0.86477013  0.46702189    -1.24540
O2311       O  0.83581651  0.67174569  0.33546658    -0.86790
O2312       O  0.79723195  0.69444207  0.29024795    -0.83840
C2313       C  0.76255410  0.66733936  0.29398499     0.96670
O2314       O  0.74254243  0.66634696  0.32248229    -0.83870
O2315       O  0.72286727  0.00226565  0.39805363    -0.86510
C2316       C  0.72455759  0.97336633  0.40977953     1.01200
O2317       O  0.75563556  0.97345214  0.40750226    -0.79280
O2318       O  0.83217092  0.99529046  0.39861980    -0.79460
C2319       C  0.83943173  0.98850876  0.36443674     1.01150
O2320       O  0.87934887  0.74563891  0.37327403    -0.86790
O2321       O  0.84214127  0.77061948  0.32794445    -0.83850
C2322       C  0.81638136  0.77590349  0.31464633     0.96690
O2323       O  0.78192156  0.74895894  0.31573050    -0.83880
O2324       O  0.77254210  0.75060663  0.39606823    -0.86480
C2325       C  0.77156202  0.74229799  0.43158667     1.01160
O2326       O  0.77639886  0.71457210  0.44245750    -0.79300
O2327       O  0.85004917  0.73477190  0.43020401    -0.79450
C2328       C  0.87922675  0.75272460  0.40950448     1.01130
Cr2329     Cr  0.83605873  0.71978679  0.33425802     1.93740
Cr2330     Cr  0.75821055  0.70871773  0.35860459     1.93210
Cr2331     Cr  0.80318659  0.68884490  0.41621897     1.39100
O2332       O  0.79991470  0.70625157  0.36991238    -1.24540
O2333       O  0.82914802  0.99175781  0.66809436    -0.86790
O2334       O  0.76784936  0.96902608  0.71330603    -0.83840
C2335       C  0.76027391  0.99612871  0.70958808     0.96670
O2336       O  0.74127472  0.99714810  0.68108778    -0.83870
O2337       O  0.71903810  0.66127536  0.60551020    -0.86510
C2338       C  0.74962795  0.69017742  0.59378628     1.01200
O2339       O  0.78062106  0.69009212  0.59606804    -0.79280
O2340       O  0.83531559  0.66824168  0.60494567    -0.79460
C2341       C  0.84934749  0.67500054  0.63913257     1.01150
O2342       O  0.79880590  0.91789282  0.63025154    -0.86790
O2343       O  0.73659990  0.89287787  0.67558286    -0.83850
C2344       C  0.70556191  0.88759562  0.68890352     0.96690
O2345       O  0.69803732  0.91453520  0.68780486    -0.83880
O2346       O  0.68703728  0.91292753  0.60746452    -0.86480
C2347       C  0.69437240  0.92124706  0.57194914     1.01160
O2348       O  0.72693560  0.94898064  0.56108602    -0.79300
O2349       O  0.78038550  0.92877859  0.57332639    -0.79450
C2350       C  0.79160621  0.91082016  0.59401992     1.01130
Cr2351     Cr  0.78135075  0.94371578  0.66928106     1.93740
Cr2352     Cr  0.71458259  0.95479963  0.64494417     1.93210
Cr2353     Cr  0.77944655  0.97469926  0.58733349     1.39100
O2354       O  0.75875428  0.95727015  0.63363405    -1.24540
O2355       O  0.82910071  0.83462214  0.50206223    -0.86790
O2356       O  0.76779428  0.79603308  0.45684727    -0.83840
C2357       C  0.76020690  0.76135318  0.46060059     0.96670
O2358       O  0.74120283  0.74136301  0.48911574    -0.83870
O2359       O  0.71901969  0.72174336  0.56471114    -0.86510
C2360       C  0.74962128  0.72345989  0.57644183     1.01200
O2361       O  0.78060396  0.75455002  0.57415638    -0.79280
O2362       O  0.83526023  0.83111204  0.56523022    -0.79460
C2363       C  0.84929685  0.83831136  0.53104848     1.01150
O2364       O  0.79878313  0.87822064  0.53981514    -0.86790
O2365       O  0.73656291  0.84098061  0.49450757    -0.83850
C2366       C  0.70549236  0.81520265  0.48127089     0.96690
O2367       O  0.69796561  0.78073898  0.48239083    -0.83880
O2368       O  0.68699546  0.77140466  0.56272886    -0.86480
C2369       C  0.69434771  0.77044065  0.59824141     1.01160
O2370       O  0.72691594  0.77529364  0.60909093    -0.79300
O2371       O  0.78030091  0.84894731  0.59675365    -0.79450
C2372       C  0.79157198  0.87812339  0.57604178     1.01130
Cr2373     Cr  0.78130985  0.83489029  0.50083330     1.93740
Cr2374     Cr  0.71453141  0.75705596  0.52525412     1.93210
Cr2375     Cr  0.77940040  0.80209513  0.58282697     1.39100
O2376       O  0.75870583  0.79877441  0.53651950    -1.24540
loop_ 
_geom_bond_atom_site_label_1 
_geom_bond_atom_site_label_2 
_geom_bond_distance 
_geom_bond_site_symmetry_2 
_ccdc_geom_bond_type 
O1          Cr19   1.933       .  S
O1         C1593   1.246   1_454  A
O2          Cr19   2.043       .  S
O2            C3   1.280       .  A
C3            O4   1.255       .  A
C3         C1687   1.463   1_455  S
O4          Cr20   1.942   1_554  S
O5         Cr812   2.037       .  S
O5            C6   1.266       .  A
C6            O7   1.254       .  A
C6           C28   1.468       .  S
O7         Cr813   1.964       .  S
O8         Cr813   2.042       .  S
O8            C9   1.271       .  A
C9          O793   1.246   1_556  A
C9          C122   1.462       .  S
O10         Cr19   2.026   1_556  S
O10          C18   1.275       .  A
O11         Cr19   1.951       .  S
O11          C12   1.246       .  A
C12          O13   1.266       .  A
C12         C119   1.462       .  S
O13         Cr20   2.039   1_554  S
O14         Cr20   1.965       .  S
O14          C15   1.259       .  A
C15          O16   1.282       .  A
C15         C135   1.463       .  S
O16         Cr21   2.042       .  S
O17         Cr21   1.931       .  S
O17          C18   1.249       .  A
C18          C40   1.455       .  S
Cr19         O22   1.767   1_554  S
Cr20       O1589   2.037       .  S
Cr20         O22   1.776       .  S
Cr21       O1591   1.964   1_455  S
Cr21       O1592   2.042   1_455  S
Cr21         O22   1.768       .  S
O23         Cr41   1.932       .  S
O23         C295   1.246       .  A
O24         Cr41   2.043       .  S
O24          C25   1.280       .  A
C25          O26   1.255       .  A
C25         C433   1.463       .  S
O26         Cr42   1.942       .  S
O27        Cr570   2.037       .  S
O27          C28   1.266   1_565  A
C28          O29   1.254       .  A
O29        Cr571   1.964   1_545  S
O30        Cr571   2.042   1_545  S
O30          C31   1.271       .  A
C31         O551   1.246   1_545  A
C31         C144   1.463       .  S
O32         Cr41   2.026       .  S
O32          C40   1.275       .  A
O33         Cr41   1.950       .  S
O33          C34   1.246       .  A
C34          O35   1.266       .  A
C34         C141   1.462       .  S
O35         Cr42   2.039       .  S
O36         Cr42   1.965       .  S
O36          C37   1.259       .  A
C37          O38   1.282       .  A
C37         C113   1.463       .  S
O38         Cr43   2.042       .  S
O39         Cr43   1.931       .  S
O39          C40   1.249       .  A
Cr41         O44   1.767       .  S
Cr42        O291   2.037       .  S
Cr42         O44   1.776       .  S
Cr43        O293   1.964       .  S
Cr43        O294   2.042       .  S
Cr43         O44   1.768       .  S
O45         Cr63   1.933       .  S
O45          C53   1.246       .  A
O46         Cr63   2.042       .  S
O46          C47   1.279       .  A
C47          O48   1.255       .  A
C47         C191   1.463       .  S
O48         Cr64   1.942       .  S
O49         Cr64   2.037       .  S
O49          C50   1.266       .  A
C50          O51   1.254       .  A
C50          C72   1.468       .  S
O51         Cr65   1.964       .  S
O52         Cr65   2.042       .  S
O52          C53   1.271       .  A
C53         C210   1.462       .  S
O54         Cr63   2.026       .  S
O54          C62   1.275       .  A
O55         Cr63   1.951       .  S
O55          C56   1.246       .  A
C56          O57   1.266       .  A
C56         C207   1.462       .  S
O57         Cr64   2.039       .  S
O58         Cr64   1.965       .  S
O58          C59   1.259       .  A
C59          O60   1.282       .  A
C59         C355   1.463       .  S
O60         Cr65   2.042       .  S
O61         Cr65   1.931       .  S
O61          C62   1.249       .  A
C62          C84   1.454       .  S
Cr63         O66   1.767       .  S
Cr64         O66   1.776       .  S
Cr65         O66   1.768       .  S
O67         Cr85   1.932       .  S
O67        C1659   1.246   1_455  A
O68         Cr85   2.042       .  S
O68          C69   1.279       .  A
C69          O70   1.255       .  A
C69        C1709   1.463   1_455  S
O70         Cr86   1.942       .  S
O71        Cr878   2.037       .  S
O71          C72   1.266       .  A
C72          O73   1.254       .  A
O73        Cr879   1.964       .  S
O74        Cr879   2.042       .  S
O74          C75   1.271       .  A
C75         O859   1.246       .  A
C75         C100   1.462       .  S
O76         Cr85   2.025       .  S
O76          C84   1.275       .  A
O77         Cr85   1.951       .  S
O77          C78   1.246       .  A
C78          O79   1.266       .  A
C78          C97   1.462       .  S
O79         Cr86   2.039       .  S
O80         Cr86   1.965       .  S
O80          C81   1.259       .  A
C81          O82   1.282       .  A
C81         C465   1.463       .  S
O82         Cr87   2.042       .  S
O83         Cr87   1.931       .  S
O83          C84   1.249       .  A
Cr85         O88   1.767       .  S
Cr86       O1655   2.037       .  S
Cr86         O88   1.776       .  S
Cr87       O1657   1.964   1_455  S
Cr87       O1658   2.042   1_455  S
Cr87         O88   1.768       .  S
O89        Cr107   1.932       .  S
O89         C625   1.246   1_545  A
O90        Cr107   2.043       .  S
O90          C91   1.279       .  A
C91          O92   1.255   1_545  A
C91         C587   1.463   1_545  S
O92        Cr108   1.942   1_565  S
O93        Cr372   2.037       .  S
O93          C94   1.266       .  A
C94          O95   1.254       .  A
C94         C116   1.468       .  S
O95        Cr373   1.964       .  S
O96        Cr373   2.042       .  S
O96          C97   1.271       .  A
C97         O353   1.246       .  A
O98        Cr107   2.026       .  S
O98         C106   1.275       .  A
O99        Cr107   1.951       .  S
O99         C100   1.246       .  A
C100        O101   1.266       .  A
O101       Cr108   2.039       .  S
O102       Cr108   1.965       .  S
O102        C103   1.259       .  A
C103        O104   1.282       .  A
C103        C795   1.463       .  S
O104       Cr109   2.043       .  S
O105       Cr109   1.931       .  S
O105        C106   1.249       .  A
C106        C128   1.455       .  S
Cr107       O110   1.767       .  S
Cr108       O621   2.037       .  S
Cr108       O110   1.776       .  S
Cr109       O623   1.964   1_545  S
Cr109       O624   2.042   1_545  S
Cr109       O110   1.768       .  S
O111       Cr129   1.933       .  S
O111        C119   1.246       .  A
O112       Cr129   2.043   1_556  S
O112        C113   1.280       .  A
C113        O114   1.255       .  A
O114       Cr130   1.942   1_556  S
O115       Cr130   2.037       .  S
O115        C116   1.266       .  A
C116        O117   1.254       .  A
O117       Cr131   1.964       .  S
O118       Cr131   2.042       .  S
O118        C119   1.271       .  A
O120       Cr129   2.026       .  S
O120        C128   1.275       .  A
O121       Cr129   1.951   1_556  S
O121        C122   1.246       .  A
C122        O123   1.266       .  A
O123       Cr130   2.039   1_556  S
O124       Cr130   1.965       .  S
O124        C125   1.259       .  A
C125        O126   1.282       .  A
C125        C861   1.463       .  S
O126       Cr131   2.042       .  S
O127       Cr131   1.931       .  S
O127        C128   1.249       .  A
Cr129       O132   1.767       .  S
Cr130       O132   1.776       .  S
Cr131       O132   1.768       .  S
O133       Cr151   1.933       .  S
O133        C141   1.246       .  A
O134       Cr151   2.042       .  S
O134        C135   1.279       .  A
C135        O136   1.255       .  A
O136       Cr152   1.942       .  S
O137       Cr152   2.037       .  S
O137        C138   1.266       .  A
C138        O139   1.254       .  A
C138        C160   1.468       .  S
O139       Cr153   1.964       .  S
O140       Cr153   2.042       .  S
O140        C141   1.271       .  A
O142       Cr151   2.026       .  S
O142        C150   1.275       .  A
O143       Cr151   1.951       .  S
O143        C144   1.246       .  A
C144        O145   1.266       .  A
O145       Cr152   2.039       .  S
O146       Cr152   1.965       .  S
O146        C147   1.259       .  A
C147        O148   1.282       .  A
C147        C751   1.463   1_545  S
O148       Cr153   2.042       .  S
O149       Cr153   1.931       .  S
O149        C150   1.249       .  A
C150        C172   1.454       .  S
Cr151       O154   1.767       .  S
Cr152       O154   1.776       .  S
Cr153       O154   1.768       .  S
O155       Cr173   1.932       .  S
O155        C955   1.246       .  A
O156       Cr173   2.042       .  S
O156        C157   1.279       .  A
C157        O158   1.255       .  A
C157       C1049   1.463       .  S
O158       Cr174   1.942       .  S
O159      Cr1758   2.037       .  S
O159        C160   1.266   1_655  A
C160        O161   1.254       .  A
O161      Cr1759   1.964   1_455  S
O162      Cr1759   2.042   1_455  S
O162        C163   1.271       .  A
C163       O1739   1.246   1_455  A
C163        C232   1.462       .  S
O164       Cr173   2.025       .  S
O164        C172   1.275       .  A
O165       Cr173   1.951       .  S
O165        C166   1.246       .  A
C166        O167   1.266       .  A
C166        C229   1.463       .  S
O167       Cr174   2.039       .  S
O168       Cr174   1.965       .  S
O168        C169   1.259       .  A
C169        O170   1.282       .  A
C169        C553   1.463   1_545  S
O170       Cr175   2.043       .  S
O171       Cr175   1.931       .  S
O171        C172   1.249       .  A
Cr173       O176   1.767       .  S
Cr174       O951   2.037       .  S
Cr174       O176   1.776       .  S
Cr175       O953   1.964       .  S
Cr175       O954   2.042       .  S
Cr175       O176   1.768       .  S
O177       Cr195   1.933       .  S
O177        C977   1.246       .  A
O178       Cr195   2.043       .  S
O178        C179   1.280       .  A
C179        O180   1.255       .  A
C179       C1027   1.463       .  S
O180       Cr196   1.942       .  S
O181      Cr1780   2.037       .  S
O181        C182   1.266   1_655  A
C182        O183   1.254       .  A
C182        C204   1.468       .  S
O183      Cr1781   1.964   1_455  S
O184      Cr1781   2.042   1_455  S
O184        C185   1.270       .  A
C185       O1761   1.246   1_455  A
C185        C254   1.462       .  S
O186       Cr195   2.026       .  S
O186        C194   1.275       .  A
O187       Cr195   1.951       .  S
O187        C188   1.246       .  A
C188        O189   1.266       .  A
C188        C251   1.462       .  S
O189       Cr196   2.039       .  S
O190       Cr196   1.965       .  S
O190        C191   1.259       .  A
C191        O192   1.282       .  A
O192       Cr197   2.042       .  S
O193       Cr197   1.931       .  S
O193        C194   1.249       .  A
C194        C216   1.455       .  S
Cr195       O198   1.767       .  S
Cr196       O973   2.037       .  S
Cr196       O198   1.776       .  S
Cr197       O975   1.964       .  S
Cr197       O976   2.042       .  S
Cr197       O198   1.768       .  S
O199       Cr217   1.932       .  S
O199        C735   1.246   1_545  A
O200       Cr217   2.043       .  S
O200        C201   1.280       .  A
C201        O202   1.255   1_545  A
C201        C609   1.463   1_545  S
O202       Cr218   1.942   1_565  S
O203       Cr482   2.037       .  S
O203        C204   1.266       .  A
C204        O205   1.254       .  A
O205       Cr483   1.964       .  S
O206       Cr483   2.042       .  S
O206        C207   1.271       .  A
C207        O463   1.246       .  A
O208       Cr217   2.026       .  S
O208        C216   1.275       .  A
O209       Cr217   1.950       .  S
O209        C210   1.246       .  A
C210        O211   1.266       .  A
O211       Cr218   2.039       .  S
O212       Cr218   1.965       .  S
O212        C213   1.259       .  A
C213        O214   1.282       .  A
C213        C245   1.463       .  S
O214       Cr219   2.042       .  S
O215       Cr219   1.931       .  S
O215        C216   1.249       .  A
Cr217       O220   1.767       .  S
Cr218       O731   2.037       .  S
Cr218       O220   1.776       .  S
Cr219       O733   1.964   1_545  S
Cr219       O734   2.042   1_545  S
Cr219       O220   1.767       .  S
O221       Cr239   1.932       .  S
O221        C493   1.246       .  A
O222       Cr239   2.043       .  S
O222        C223   1.280       .  A
C223        O224   1.255       .  A
C223        C411   1.463       .  S
O224       Cr240   1.942       .  S
O225       Cr768   2.037       .  S
O225        C226   1.266   1_565  A
C226        O227   1.254       .  A
C226        C248   1.468       .  S
O227       Cr769   1.964   1_545  S
O228       Cr769   2.043   1_545  S
O228        C229   1.271       .  A
C229        O749   1.246   1_545  A
O230       Cr239   2.026       .  S
O230        C238   1.275       .  A
O231       Cr239   1.951       .  S
O231        C232   1.246       .  A
C232        O233   1.266       .  A
O233       Cr240   2.039       .  S
O234       Cr240   1.965       .  S
O234        C235   1.259       .  A
C235        O236   1.282       .  A
C235       C1763   1.463   1_455  S
O236       Cr241   2.043       .  S
O237       Cr241   1.931       .  S
O237        C238   1.249       .  A
C238        C260   1.455       .  S
Cr239       O242   1.767       .  S
Cr240       O489   2.037       .  S
Cr240       O242   1.776       .  S
Cr241       O491   1.964       .  S
Cr241       O492   2.043       .  S
Cr241       O242   1.768       .  S
O243       Cr261   1.933       .  S
O243        C251   1.246       .  A
O244       Cr261   2.043       .  S
O244        C245   1.280       .  A
C245        O246   1.255       .  A
O246       Cr262   1.942       .  S
O247       Cr262   2.037       .  S
O247        C248   1.266       .  A
C248        O249   1.254       .  A
O249       Cr263   1.964       .  S
O250       Cr263   2.042       .  S
O250        C251   1.270       .  A
O252       Cr261   2.026       .  S
O252        C260   1.275       .  A
O253       Cr261   1.951       .  S
O253        C254   1.246       .  A
C254        O255   1.266       .  A
O255       Cr262   2.039       .  S
O256       Cr262   1.965       .  S
O256        C257   1.259       .  A
C257        O258   1.282       .  A
C257       C1741   1.463   1_455  S
O258       Cr263   2.042       .  S
O259       Cr263   1.931       .  S
O259        C260   1.249       .  A
Cr261       O264   1.767       .  S
Cr262       O264   1.776       .  S
Cr263       O264   1.768       .  S
O265       Cr283   1.933       .  S
O265       C1857   1.246   1_454  A
O266       Cr283   2.043       .  S
O266        C267   1.280       .  A
C267        O268   1.255       .  A
C267       C1951   1.463   1_455  S
O268       Cr284   1.942   1_554  S
O269      Cr1076   2.037       .  S
O269        C270   1.266       .  A
C270        O271   1.254       .  A
C270        C292   1.468       .  S
O271      Cr1077   1.964       .  S
O272      Cr1077   2.042       .  S
O272        C273   1.271       .  A
C273       O1057   1.246   1_556  A
C273        C386   1.462       .  S
O274       Cr283   2.026   1_556  S
O274        C282   1.275       .  A
O275       Cr283   1.951       .  S
O275        C276   1.246       .  A
C276        O277   1.266       .  A
C276        C383   1.462       .  S
O277       Cr284   2.039   1_554  S
O278       Cr284   1.965       .  S
O278        C279   1.259       .  A
C279        O280   1.282       .  A
C279        C399   1.463       .  S
O280       Cr285   2.042       .  S
O281       Cr285   1.931       .  S
O281        C282   1.249       .  A
C282        C304   1.455       .  S
Cr283       O286   1.767   1_554  S
Cr284      O1853   2.037       .  S
Cr284       O286   1.776       .  S
Cr285      O1855   1.964   1_455  S
Cr285      O1856   2.042   1_455  S
Cr285       O286   1.768       .  S
O287       Cr305   1.932       .  S
O287        C559   1.246       .  A
O288       Cr305   2.043       .  S
O288        C289   1.280       .  A
C289        O290   1.255       .  A
C289        C697   1.463       .  S
O290       Cr306   1.942       .  S
O291        C292   1.266       .  A
C292        O293   1.254       .  A
O294        C295   1.271       .  A
C295        C408   1.463       .  S
O296       Cr305   2.026       .  S
O296        C304   1.275       .  A
O297       Cr305   1.950       .  S
O297        C298   1.246       .  A
C298        O299   1.266       .  A
C298        C405   1.462       .  S
O299       Cr306   2.039       .  S
O300       Cr306   1.965       .  S
O300        C301   1.259       .  A
C301        O302   1.282       .  A
C301        C377   1.463       .  S
O302       Cr307   2.042       .  S
O303       Cr307   1.931       .  S
O303        C304   1.249       .  A
Cr305       O308   1.767       .  S
Cr306       O555   2.037       .  S
Cr306       O308   1.776       .  S
Cr307       O557   1.964       .  S
Cr307       O558   2.042       .  S
Cr307       O308   1.768       .  S
O309       Cr327   1.933       .  S
O309        C317   1.246       .  A
O310       Cr327   2.042       .  S
O310        C311   1.279       .  A
C311        O312   1.255       .  A
C311        C455   1.463       .  S
O312       Cr328   1.942       .  S
O313       Cr328   2.037       .  S
O313        C314   1.266       .  A
C314        O315   1.254       .  A
C314        C336   1.468       .  S
O315       Cr329   1.964       .  S
O316       Cr329   2.042       .  S
O316        C317   1.271       .  A
C317        C474   1.462       .  S
O318       Cr327   2.026       .  S
O318        C326   1.275       .  A
O319       Cr327   1.951       .  S
O319        C320   1.246       .  A
C320        O321   1.266       .  A
C320        C471   1.462       .  S
O321       Cr328   2.039       .  S
O322       Cr328   1.965       .  S
O322        C323   1.259       .  A
C323        O324   1.282       .  A
C323        C619   1.463       .  S
O324       Cr329   2.042       .  S
O325       Cr329   1.931       .  S
O325        C326   1.249       .  A
C326        C348   1.454       .  S
Cr327       O330   1.767       .  S
Cr328       O330   1.776       .  S
Cr329       O330   1.768       .  S
O331       Cr349   1.932       .  S
O331       C1923   1.246   1_455  A
O332       Cr349   2.042       .  S
O332        C333   1.279       .  A
C333        O334   1.255       .  A
C333       C1973   1.463   1_455  S
O334       Cr350   1.942       .  S
O335      Cr1142   2.037       .  S
O335        C336   1.266       .  A
C336        O337   1.254       .  A
O337      Cr1143   1.964       .  S
O338      Cr1143   2.042       .  S
O338        C339   1.271       .  A
C339       O1123   1.246       .  A
C339        C364   1.462       .  S
O340       Cr349   2.025       .  S
O340        C348   1.275       .  A
O341       Cr349   1.951       .  S
O341        C342   1.246       .  A
C342        O343   1.266       .  A
C342        C361   1.462       .  S
O343       Cr350   2.039       .  S
O344       Cr350   1.965       .  S
O344        C345   1.259       .  A
C345        O346   1.282       .  A
C345        C729   1.463       .  S
O346       Cr351   2.042       .  S
O347       Cr351   1.931       .  S
O347        C348   1.249       .  A
Cr349       O352   1.767       .  S
Cr350      O1919   2.037       .  S
Cr350       O352   1.776       .  S
Cr351      O1921   1.964   1_455  S
Cr351      O1922   2.042   1_455  S
Cr351       O352   1.768       .  S
O353       Cr371   1.932       .  S
O354       Cr371   2.043       .  S
O354        C355   1.279       .  A
C355        O356   1.255       .  A
O356       Cr372   1.942       .  S
O357       Cr636   2.037       .  S
O357        C358   1.266       .  A
C358        O359   1.254       .  A
C358        C380   1.468       .  S
O359       Cr637   1.964       .  S
O360       Cr637   2.042       .  S
O360        C361   1.271       .  A
C361        O617   1.246       .  A
O362       Cr371   2.026       .  S
O362        C370   1.275       .  A
O363       Cr371   1.951       .  S
O363        C364   1.246       .  A
C364        O365   1.266       .  A
O365       Cr372   2.039       .  S
O366       Cr372   1.965       .  S
O366        C367   1.259       .  A
C367        O368   1.282       .  A
C367       C1059   1.463       .  S
O368       Cr373   2.043       .  S
O369       Cr373   1.931       .  S
O369        C370   1.249       .  A
C370        C392   1.455       .  S
Cr371       O374   1.767       .  S
Cr372       O374   1.776       .  S
Cr373       O374   1.768       .  S
O375       Cr393   1.933       .  S
O375        C383   1.246       .  A
O376       Cr393   2.043   1_556  S
O376        C377   1.280       .  A
C377        O378   1.255       .  A
O378       Cr394   1.942   1_556  S
O379       Cr394   2.037       .  S
O379        C380   1.266       .  A
C380        O381   1.254       .  A
O381       Cr395   1.964       .  S
O382       Cr395   2.042       .  S
O382        C383   1.271       .  A
O384       Cr393   2.026       .  S
O384        C392   1.275       .  A
O385       Cr393   1.951   1_556  S
O385        C386   1.246       .  A
C386        O387   1.266       .  A
O387       Cr394   2.039   1_556  S
O388       Cr394   1.965       .  S
O388        C389   1.259       .  A
C389        O390   1.282       .  A
C389       C1125   1.463       .  S
O390       Cr395   2.042       .  S
O391       Cr395   1.931       .  S
O391        C392   1.249       .  A
Cr393       O396   1.767       .  S
Cr394       O396   1.776       .  S
Cr395       O396   1.768       .  S
O397       Cr415   1.933       .  S
O397        C405   1.246       .  A
O398       Cr415   2.042       .  S
O398        C399   1.279       .  A
C399        O400   1.255       .  A
O400       Cr416   1.942       .  S
O401       Cr416   2.037       .  S
O401        C402   1.266       .  A
C402        O403   1.254       .  A
C402        C424   1.468       .  S
O403       Cr417   1.964       .  S
O404       Cr417   2.042       .  S
O404        C405   1.271       .  A
O406       Cr415   2.026       .  S
O406        C414   1.275       .  A
O407       Cr415   1.951       .  S
O407        C408   1.246       .  A
C408        O409   1.266       .  A
O409       Cr416   2.039       .  S
O410       Cr416   1.965       .  S
O410        C411   1.259       .  A
C411        O412   1.282       .  A
O412       Cr417   2.042       .  S
O413       Cr417   1.931       .  S
O413        C414   1.249       .  A
C414        C436   1.454       .  S
Cr415       O418   1.767       .  S
Cr416       O418   1.776       .  S
Cr417       O418   1.768       .  S
O419       Cr437   1.932       .  S
O419       C1219   1.246       .  A
O420       Cr437   2.042       .  S
O420        C421   1.279       .  A
C421        O422   1.255       .  A
C421       C1313   1.463       .  S
O422       Cr438   1.942       .  S
O423      Cr2022   2.037       .  S
O423        C424   1.266   1_655  A
C424        O425   1.254       .  A
O425      Cr2023   1.964   1_455  S
O426      Cr2023   2.042   1_455  S
O426        C427   1.271       .  A
C427       O2003   1.246   1_455  A
C427        C496   1.462       .  S
O428       Cr437   2.025       .  S
O428        C436   1.275       .  A
O429       Cr437   1.951       .  S
O429        C430   1.246       .  A
C430        O431   1.266       .  A
C430        C493   1.463       .  S
O431       Cr438   2.039       .  S
O432       Cr438   1.965       .  S
O432        C433   1.259       .  A
C433        O434   1.282       .  A
O434       Cr439   2.043       .  S
O435       Cr439   1.931       .  S
O435        C436   1.249       .  A
Cr437       O440   1.767       .  S
Cr438      O1215   2.037       .  S
Cr438       O440   1.776       .  S
Cr439      O1217   1.964       .  S
Cr439      O1218   2.042       .  S
Cr439       O440   1.768       .  S
O441       Cr459   1.933       .  S
O441       C1241   1.246       .  A
O442       Cr459   2.043       .  S
O442        C443   1.280       .  A
C443        O444   1.255       .  A
C443       C1291   1.463       .  S
O444       Cr460   1.942       .  S
O445      Cr2044   2.037       .  S
O445        C446   1.266   1_655  A
C446        O447   1.254       .  A
C446        C468   1.468       .  S
O447      Cr2045   1.964   1_455  S
O448      Cr2045   2.042   1_455  S
O448        C449   1.270       .  A
C449       O2025   1.246   1_455  A
C449        C518   1.462       .  S
O450       Cr459   2.026       .  S
O450        C458   1.275       .  A
O451       Cr459   1.951       .  S
O451        C452   1.246       .  A
C452        O453   1.266       .  A
C452        C515   1.462       .  S
O453       Cr460   2.039       .  S
O454       Cr460   1.965       .  S
O454        C455   1.259       .  A
C455        O456   1.282       .  A
O456       Cr461   2.042       .  S
O457       Cr461   1.931       .  S
O457        C458   1.249       .  A
C458        C480   1.455       .  S
Cr459       O462   1.767       .  S
Cr460      O1237   2.037       .  S
Cr460       O462   1.776       .  S
Cr461      O1239   1.964       .  S
Cr461      O1240   2.042       .  S
Cr461       O462   1.768       .  S
O463       Cr481   1.932       .  S
O464       Cr481   2.043       .  S
O464        C465   1.280       .  A
C465        O466   1.255       .  A
O466       Cr482   1.942       .  S
O467       Cr746   2.037       .  S
O467        C468   1.266       .  A
C468        O469   1.254       .  A
O469       Cr747   1.964       .  S
O470       Cr747   2.042       .  S
O470        C471   1.271       .  A
C471        O727   1.246       .  A
O472       Cr481   2.026       .  S
O472        C480   1.275       .  A
O473       Cr481   1.950       .  S
O473        C474   1.246       .  A
C474        O475   1.266       .  A
O475       Cr482   2.039       .  S
O476       Cr482   1.965       .  S
O476        C477   1.259       .  A
C477        O478   1.282       .  A
C477        C509   1.463       .  S
O478       Cr483   2.042       .  S
O479       Cr483   1.931       .  S
O479        C480   1.249       .  A
Cr481       O484   1.767       .  S
Cr482       O484   1.776       .  S
Cr483       O484   1.767       .  S
O485       Cr503   1.932       .  S
O485        C757   1.246       .  A
O486       Cr503   2.043       .  S
O486        C487   1.280       .  A
C487        O488   1.255       .  A
C487        C675   1.463       .  S
O488       Cr504   1.942       .  S
O489        C490   1.266       .  A
C490        O491   1.254       .  A
C490        C512   1.468       .  S
O492        C493   1.271       .  A
O494       Cr503   2.026       .  S
O494        C502   1.275       .  A
O495       Cr503   1.951       .  S
O495        C496   1.246       .  A
C496        O497   1.266       .  A
O497       Cr504   2.039       .  S
O498       Cr504   1.965       .  S
O498        C499   1.259       .  A
C499        O500   1.282       .  A
C499       C2027   1.463   1_455  S
O500       Cr505   2.043       .  S
O501       Cr505   1.931       .  S
O501        C502   1.249       .  A
C502        C524   1.455       .  S
Cr503       O506   1.767       .  S
Cr504       O753   2.037       .  S
Cr504       O506   1.776       .  S
Cr505       O755   1.964       .  S
Cr505       O756   2.043       .  S
Cr505       O506   1.768       .  S
O507       Cr525   1.933       .  S
O507        C515   1.246       .  A
O508       Cr525   2.043       .  S
O508        C509   1.280       .  A
C509        O510   1.255       .  A
O510       Cr526   1.942       .  S
O511       Cr526   2.037       .  S
O511        C512   1.266       .  A
C512        O513   1.254       .  A
O513       Cr527   1.964       .  S
O514       Cr527   2.042       .  S
O514        C515   1.270       .  A
O516       Cr525   2.026       .  S
O516        C524   1.275       .  A
O517       Cr525   1.951       .  S
O517        C518   1.246       .  A
C518        O519   1.266       .  A
O519       Cr526   2.039       .  S
O520       Cr526   1.965       .  S
O520        C521   1.259       .  A
C521        O522   1.282       .  A
C521       C2005   1.463   1_455  S
O522       Cr527   2.042       .  S
O523       Cr527   1.931       .  S
O523        C524   1.249       .  A
Cr525       O528   1.767       .  S
Cr526       O528   1.776       .  S
Cr527       O528   1.768       .  S
O529       Cr547   1.933       .  S
O529       C2121   1.246   1_454  A
O530       Cr547   2.043       .  S
O530        C531   1.280       .  A
C531        O532   1.255       .  A
C531       C2215   1.463   1_455  S
O532       Cr548   1.942   1_554  S
O533      Cr1340   2.037       .  S
O533        C534   1.266       .  A
C534        O535   1.254       .  A
C534        C556   1.468       .  S
O535      Cr1341   1.964       .  S
O536      Cr1341   2.042       .  S
O536        C537   1.271       .  A
C537       O1321   1.246   1_556  A
C537        C650   1.462       .  S
O538       Cr547   2.026   1_556  S
O538        C546   1.275       .  A
O539       Cr547   1.951       .  S
O539        C540   1.246       .  A
C540        O541   1.266       .  A
C540        C647   1.462       .  S
O541       Cr548   2.039   1_554  S
O542       Cr548   1.965       .  S
O542        C543   1.259       .  A
C543        O544   1.282       .  A
C543        C663   1.463       .  S
O544       Cr549   2.042       .  S
O545       Cr549   1.931       .  S
O545        C546   1.249       .  A
C546        C568   1.455       .  S
Cr547       O550   1.767   1_554  S
Cr548      O2117   2.037       .  S
Cr548       O550   1.776       .  S
Cr549      O2119   1.964   1_455  S
Cr549      O2120   2.042   1_455  S
Cr549       O550   1.768       .  S
O551       Cr569   1.932       .  S
O552       Cr569   2.043       .  S
O552        C553   1.280       .  A
C553        O554   1.255       .  A
O554       Cr570   1.942       .  S
O555        C556   1.266       .  A
C556        O557   1.254       .  A
O558        C559   1.271       .  A
C559        C672   1.463       .  S
O560       Cr569   2.026       .  S
O560        C568   1.275       .  A
O561       Cr569   1.950       .  S
O561        C562   1.246       .  A
C562        O563   1.266       .  A
C562        C669   1.462       .  S
O563       Cr570   2.039       .  S
O564       Cr570   1.965       .  S
O564        C565   1.259       .  A
C565        O566   1.282       .  A
C565        C641   1.463       .  S
O566       Cr571   2.042       .  S
O567       Cr571   1.931       .  S
O567        C568   1.249       .  A
Cr569       O572   1.767       .  S
Cr570       O572   1.776       .  S
Cr571       O572   1.768       .  S
O573       Cr591   1.933       .  S
O573        C581   1.246       .  A
O574       Cr591   2.042       .  S
O574        C575   1.279       .  A
C575        O576   1.255       .  A
C575        C719   1.463       .  S
O576       Cr592   1.942       .  S
O577       Cr592   2.037       .  S
O577        C578   1.266       .  A
C578        O579   1.254       .  A
C578        C600   1.468       .  S
O579       Cr593   1.964       .  S
O580       Cr593   2.042       .  S
O580        C581   1.271       .  A
C581        C738   1.462       .  S
O582       Cr591   2.026       .  S
O582        C590   1.275       .  A
O583       Cr591   1.951       .  S
O583        C584   1.246       .  A
C584        O585   1.266       .  A
C584        C735   1.462       .  S
O585       Cr592   2.039       .  S
O586       Cr592   1.965       .  S
O586        C587   1.259       .  A
C587        O588   1.282       .  A
O588       Cr593   2.042       .  S
O589       Cr593   1.931       .  S
O589        C590   1.249       .  A
C590        C612   1.454       .  S
Cr591       O594   1.767       .  S
Cr592       O594   1.776       .  S
Cr593       O594   1.768       .  S
O595       Cr613   1.932       .  S
O595       C2187   1.246   1_455  A
O596       Cr613   2.042       .  S
O596        C597   1.279       .  A
C597        O598   1.255       .  A
C597       C2237   1.463   1_455  S
O598       Cr614   1.942       .  S
O599      Cr1406   2.037       .  S
O599        C600   1.266       .  A
C600        O601   1.254       .  A
O601      Cr1407   1.964       .  S
O602      Cr1407   2.042       .  S
O602        C603   1.271       .  A
C603       O1387   1.246       .  A
C603        C628   1.462       .  S
O604       Cr613   2.025       .  S
O604        C612   1.275       .  A
O605       Cr613   1.951       .  S
O605        C606   1.246       .  A
C606        O607   1.266       .  A
C606        C625   1.462       .  S
O607       Cr614   2.039       .  S
O608       Cr614   1.965       .  S
O608        C609   1.259       .  A
C609        O610   1.282       .  A
O610       Cr615   2.042       .  S
O611       Cr615   1.931       .  S
O611        C612   1.249       .  A
Cr613       O616   1.767       .  S
Cr614      O2183   2.037       .  S
Cr614       O616   1.776       .  S
Cr615      O2185   1.964   1_455  S
Cr615      O2186   2.042   1_455  S
Cr615       O616   1.768       .  S
O617       Cr635   1.932       .  S
O618       Cr635   2.043       .  S
O618        C619   1.279       .  A
C619        O620   1.255       .  A
O620       Cr636   1.942       .  S
O621        C622   1.266   1_545  A
C622        O623   1.254       .  A
C622        C644   1.468       .  S
O624        C625   1.271       .  A
O626       Cr635   2.026       .  S
O626        C634   1.275       .  A
O627       Cr635   1.951       .  S
O627        C628   1.246       .  A
C628        O629   1.266       .  A
O629       Cr636   2.039       .  S
O630       Cr636   1.965       .  S
O630        C631   1.259       .  A
C631        O632   1.282       .  A
C631       C1323   1.463       .  S
O632       Cr637   2.043       .  S
O633       Cr637   1.931       .  S
O633        C634   1.249       .  A
C634        C656   1.455       .  S
Cr635       O638   1.767       .  S
Cr636       O638   1.776       .  S
Cr637       O638   1.768       .  S
O639       Cr657   1.933       .  S
O639        C647   1.246       .  A
O640       Cr657   2.043   1_556  S
O640        C641   1.280       .  A
C641        O642   1.255       .  A
O642       Cr658   1.942   1_556  S
O643       Cr658   2.037       .  S
O643        C644   1.266       .  A
C644        O645   1.254       .  A
O645       Cr659   1.964       .  S
O646       Cr659   2.042       .  S
O646        C647   1.271       .  A
O648       Cr657   2.026       .  S
O648        C656   1.275       .  A
O649       Cr657   1.951   1_556  S
O649        C650   1.246       .  A
C650        O651   1.266       .  A
O651       Cr658   2.039   1_556  S
O652       Cr658   1.965       .  S
O652        C653   1.259       .  A
C653        O654   1.282       .  A
C653       C1389   1.463       .  S
O654       Cr659   2.042       .  S
O655       Cr659   1.931       .  S
O655        C656   1.249       .  A
Cr657       O660   1.767       .  S
Cr658       O660   1.776       .  S
Cr659       O660   1.768       .  S
O661       Cr679   1.933       .  S
O661        C669   1.246       .  A
O662       Cr679   2.042       .  S
O662        C663   1.279       .  A
C663        O664   1.255       .  A
O664       Cr680   1.942       .  S
O665       Cr680   2.037       .  S
O665        C666   1.266       .  A
C666        O667   1.254       .  A
C666        C688   1.468       .  S
O667       Cr681   1.964       .  S
O668       Cr681   2.042       .  S
O668        C669   1.271       .  A
O670       Cr679   2.026       .  S
O670        C678   1.275       .  A
O671       Cr679   1.951       .  S
O671        C672   1.246       .  A
C672        O673   1.266       .  A
O673       Cr680   2.039       .  S
O674       Cr680   1.965       .  S
O674        C675   1.259       .  A
C675        O676   1.282       .  A
O676       Cr681   2.042       .  S
O677       Cr681   1.931       .  S
O677        C678   1.249       .  A
C678        C700   1.454       .  S
Cr679       O682   1.767       .  S
Cr680       O682   1.776       .  S
Cr681       O682   1.768       .  S
O683       Cr701   1.932       .  S
O683       C1483   1.246       .  A
O684       Cr701   2.042       .  S
O684        C685   1.279       .  A
C685        O686   1.255       .  A
C685       C1577   1.463       .  S
O686       Cr702   1.942       .  S
O687      Cr2286   2.037       .  S
O687        C688   1.266   1_655  A
C688        O689   1.254       .  A
O689      Cr2287   1.964   1_455  S
O690      Cr2287   2.042   1_455  S
O690        C691   1.271       .  A
C691       O2267   1.246   1_455  A
C691        C760   1.462       .  S
O692       Cr701   2.025       .  S
O692        C700   1.275       .  A
O693       Cr701   1.951       .  S
O693        C694   1.246       .  A
C694        O695   1.266       .  A
C694        C757   1.463       .  S
O695       Cr702   2.039       .  S
O696       Cr702   1.965       .  S
O696        C697   1.259       .  A
C697        O698   1.282       .  A
O698       Cr703   2.043       .  S
O699       Cr703   1.931       .  S
O699        C700   1.249       .  A
Cr701       O704   1.767       .  S
Cr702      O1479   2.037       .  S
Cr702       O704   1.776       .  S
Cr703      O1481   1.964       .  S
Cr703      O1482   2.042       .  S
Cr703       O704   1.768       .  S
O705       Cr723   1.933       .  S
O705       C1505   1.246       .  A
O706       Cr723   2.043       .  S
O706        C707   1.280       .  A
C707        O708   1.255       .  A
C707       C1555   1.463       .  S
O708       Cr724   1.942       .  S
O709      Cr2308   2.037       .  S
O709        C710   1.266   1_655  A
C710        O711   1.254       .  A
C710        C732   1.468       .  S
O711      Cr2309   1.964   1_455  S
O712      Cr2309   2.042   1_455  S
O712        C713   1.270       .  A
C713       O2289   1.246   1_455  A
C713        C782   1.462       .  S
O714       Cr723   2.026       .  S
O714        C722   1.275       .  A
O715       Cr723   1.951       .  S
O715        C716   1.246       .  A
C716        O717   1.266       .  A
C716        C779   1.462       .  S
O717       Cr724   2.039       .  S
O718       Cr724   1.965       .  S
O718        C719   1.259       .  A
C719        O720   1.282       .  A
O720       Cr725   2.042       .  S
O721       Cr725   1.931       .  S
O721        C722   1.249       .  A
C722        C744   1.455       .  S
Cr723       O726   1.767       .  S
Cr724      O1501   2.037       .  S
Cr724       O726   1.776       .  S
Cr725      O1503   1.964       .  S
Cr725      O1504   2.042       .  S
Cr725       O726   1.768       .  S
O727       Cr745   1.932       .  S
O728       Cr745   2.043       .  S
O728        C729   1.280       .  A
C729        O730   1.255       .  A
O730       Cr746   1.942       .  S
O731        C732   1.266   1_545  A
C732        O733   1.254       .  A
O734        C735   1.271       .  A
O736       Cr745   2.026       .  S
O736        C744   1.275       .  A
O737       Cr745   1.950       .  S
O737        C738   1.246       .  A
C738        O739   1.266       .  A
O739       Cr746   2.039       .  S
O740       Cr746   1.965       .  S
O740        C741   1.259       .  A
C741        O742   1.282       .  A
C741        C773   1.463       .  S
O742       Cr747   2.042       .  S
O743       Cr747   1.931       .  S
O743        C744   1.249       .  A
Cr745       O748   1.767       .  S
Cr746       O748   1.776       .  S
Cr747       O748   1.767       .  S
O749       Cr767   1.932       .  S
O750       Cr767   2.043       .  S
O750        C751   1.280       .  A
C751        O752   1.255       .  A
O752       Cr768   1.942       .  S
O753        C754   1.266       .  A
C754        O755   1.254       .  A
C754        C776   1.468       .  S
O756        C757   1.271       .  A
O758       Cr767   2.026       .  S
O758        C766   1.275       .  A
O759       Cr767   1.951       .  S
O759        C760   1.246       .  A
C760        O761   1.266       .  A
O761       Cr768   2.039       .  S
O762       Cr768   1.965       .  S
O762        C763   1.259       .  A
C763        O764   1.282       .  A
C763       C2291   1.463   1_455  S
O764       Cr769   2.043       .  S
O765       Cr769   1.931       .  S
O765        C766   1.249       .  A
C766        C788   1.455       .  S
Cr767       O770   1.767       .  S
Cr768       O770   1.776       .  S
Cr769       O770   1.768       .  S
O771       Cr789   1.933       .  S
O771        C779   1.246       .  A
O772       Cr789   2.043       .  S
O772        C773   1.280       .  A
C773        O774   1.255       .  A
O774       Cr790   1.942       .  S
O775       Cr790   2.037       .  S
O775        C776   1.266       .  A
C776        O777   1.254       .  A
O777       Cr791   1.964       .  S
O778       Cr791   2.042       .  S
O778        C779   1.270       .  A
O780       Cr789   2.026       .  S
O780        C788   1.275       .  A
O781       Cr789   1.951       .  S
O781        C782   1.246       .  A
C782        O783   1.266       .  A
O783       Cr790   2.039       .  S
O784       Cr790   1.965       .  S
O784        C785   1.259       .  A
C785        O786   1.282       .  A
C785       C2269   1.463   1_455  S
O786       Cr791   2.042       .  S
O787       Cr791   1.931       .  S
O787        C788   1.249       .  A
Cr789       O792   1.767       .  S
Cr790       O792   1.776       .  S
Cr791       O792   1.768       .  S
O793       Cr811   1.933       .  S
O794       Cr811   2.043       .  S
O794        C795   1.280       .  A
C795        O796   1.255       .  A
O796       Cr812   1.942   1_554  S
O797      Cr1604   2.037       .  S
O797        C798   1.266       .  A
C798        O799   1.254       .  A
C798        C820   1.468       .  S
O799      Cr1605   1.964       .  S
O800      Cr1605   2.042       .  S
O800        C801   1.271       .  A
C801       O1585   1.246   1_556  A
C801        C914   1.462       .  S
O802       Cr811   2.026   1_556  S
O802        C810   1.275       .  A
O803       Cr811   1.951       .  S
O803        C804   1.246       .  A
C804        O805   1.266       .  A
C804        C911   1.462       .  S
O805       Cr812   2.039   1_554  S
O806       Cr812   1.965       .  S
O806        C807   1.259       .  A
C807        O808   1.282       .  A
C807        C927   1.463       .  S
O808       Cr813   2.042       .  S
O809       Cr813   1.931       .  S
O809        C810   1.249       .  A
C810        C832   1.455       .  S
Cr811       O814   1.767   1_554  S
Cr812       O814   1.776       .  S
Cr813       O814   1.768       .  S
O815       Cr833   1.932       .  S
O815       C1087   1.246       .  A
O816       Cr833   2.043       .  S
O816        C817   1.280       .  A
C817        O818   1.255       .  A
C817       C1225   1.463       .  S
O818       Cr834   1.942       .  S
O819      Cr1362   2.037       .  S
O819        C820   1.266   1_565  A
C820        O821   1.254       .  A
O821      Cr1363   1.964   1_545  S
O822      Cr1363   2.042   1_545  S
O822        C823   1.271       .  A
C823       O1343   1.246   1_545  A
C823        C936   1.463       .  S
O824       Cr833   2.026       .  S
O824        C832   1.275       .  A
O825       Cr833   1.950       .  S
O825        C826   1.246       .  A
C826        O827   1.266       .  A
C826        C933   1.462       .  S
O827       Cr834   2.039       .  S
O828       Cr834   1.965       .  S
O828        C829   1.259       .  A
C829        O830   1.282       .  A
C829        C905   1.463       .  S
O830       Cr835   2.042       .  S
O831       Cr835   1.931       .  S
O831        C832   1.249       .  A
Cr833       O836   1.767       .  S
Cr834      O1083   2.037       .  S
Cr834       O836   1.776       .  S
Cr835      O1085   1.964       .  S
Cr835      O1086   2.042       .  S
Cr835       O836   1.768       .  S
O837       Cr855   1.933       .  S
O837        C845   1.246       .  A
O838       Cr855   2.042       .  S
O838        C839   1.279       .  A
C839        O840   1.255       .  A
C839        C983   1.463       .  S
O840       Cr856   1.942       .  S
O841       Cr856   2.037       .  S
O841        C842   1.266       .  A
C842        O843   1.254       .  A
C842        C864   1.468       .  S
O843       Cr857   1.964       .  S
O844       Cr857   2.042       .  S
O844        C845   1.271       .  A
C845       C1002   1.462       .  S
O846       Cr855   2.026       .  S
O846        C854   1.275       .  A
O847       Cr855   1.951       .  S
O847        C848   1.246       .  A
C848        O849   1.266       .  A
C848        C999   1.462       .  S
O849       Cr856   2.039       .  S
O850       Cr856   1.965       .  S
O850        C851   1.259       .  A
C851        O852   1.282       .  A
C851       C1147   1.463       .  S
O852       Cr857   2.042       .  S
O853       Cr857   1.931       .  S
O853        C854   1.249       .  A
C854        C876   1.454       .  S
Cr855       O858   1.767       .  S
Cr856       O858   1.776       .  S
Cr857       O858   1.768       .  S
O859       Cr877   1.932       .  S
O860       Cr877   2.042       .  S
O860        C861   1.279       .  A
C861        O862   1.255       .  A
O862       Cr878   1.942       .  S
O863      Cr1670   2.037       .  S
O863        C864   1.266       .  A
C864        O865   1.254       .  A
O865      Cr1671   1.964       .  S
O866      Cr1671   2.042       .  S
O866        C867   1.271       .  A
C867       O1651   1.246       .  A
C867        C892   1.462       .  S
O868       Cr877   2.025       .  S
O868        C876   1.275       .  A
O869       Cr877   1.951       .  S
O869        C870   1.246       .  A
C870        O871   1.266       .  A
C870        C889   1.462       .  S
O871       Cr878   2.039       .  S
O872       Cr878   1.965       .  S
O872        C873   1.259       .  A
C873        O874   1.282       .  A
C873       C1257   1.463       .  S
O874       Cr879   2.042       .  S
O875       Cr879   1.931       .  S
O875        C876   1.249       .  A
Cr877       O880   1.767       .  S
Cr878       O880   1.776       .  S
Cr879       O880   1.768       .  S
O881       Cr899   1.932       .  S
O881       C1417   1.246   1_545  A
O882       Cr899   2.043       .  S
O882        C883   1.279       .  A
C883        O884   1.255   1_545  A
C883       C1379   1.463   1_545  S
O884       Cr900   1.942   1_565  S
O885      Cr1164   2.037       .  S
O885        C886   1.266       .  A
C886        O887   1.254       .  A
C886        C908   1.468       .  S
O887      Cr1165   1.964       .  S
O888      Cr1165   2.042       .  S
O888        C889   1.271       .  A
C889       O1145   1.246       .  A
O890       Cr899   2.026       .  S
O890        C898   1.275       .  A
O891       Cr899   1.951       .  S
O891        C892   1.246       .  A
C892        O893   1.266       .  A
O893       Cr900   2.039       .  S
O894       Cr900   1.965       .  S
O894        C895   1.259       .  A
C895        O896   1.282       .  A
C895       C1587   1.463       .  S
O896       Cr901   2.043       .  S
O897       Cr901   1.931       .  S
O897        C898   1.249       .  A
C898        C920   1.455       .  S
Cr899       O902   1.767       .  S
Cr900      O1413   2.037       .  S
Cr900       O902   1.776       .  S
Cr901      O1415   1.964   1_545  S
Cr901      O1416   2.042   1_545  S
Cr901       O902   1.768       .  S
O903       Cr921   1.933       .  S
O903        C911   1.246       .  A
O904       Cr921   2.043   1_556  S
O904        C905   1.280       .  A
C905        O906   1.255       .  A
O906       Cr922   1.942   1_556  S
O907       Cr922   2.037       .  S
O907        C908   1.266       .  A
C908        O909   1.254       .  A
O909       Cr923   1.964       .  S
O910       Cr923   2.042       .  S
O910        C911   1.271       .  A
O912       Cr921   2.026       .  S
O912        C920   1.275       .  A
O913       Cr921   1.951   1_556  S
O913        C914   1.246       .  A
C914        O915   1.266       .  A
O915       Cr922   2.039   1_556  S
O916       Cr922   1.965       .  S
O916        C917   1.259       .  A
C917        O918   1.282       .  A
C917       C1653   1.463       .  S
O918       Cr923   2.042       .  S
O919       Cr923   1.931       .  S
O919        C920   1.249       .  A
Cr921       O924   1.767       .  S
Cr922       O924   1.776       .  S
Cr923       O924   1.768       .  S
O925       Cr943   1.933       .  S
O925        C933   1.246       .  A
O926       Cr943   2.042       .  S
O926        C927   1.279       .  A
C927        O928   1.255       .  A
O928       Cr944   1.942       .  S
O929       Cr944   2.037       .  S
O929        C930   1.266       .  A
C930        O931   1.254       .  A
C930        C952   1.468       .  S
O931       Cr945   1.964       .  S
O932       Cr945   2.042       .  S
O932        C933   1.271       .  A
O934       Cr943   2.026       .  S
O934        C942   1.275       .  A
O935       Cr943   1.951       .  S
O935        C936   1.246       .  A
C936        O937   1.266       .  A
O937       Cr944   2.039       .  S
O938       Cr944   1.965       .  S
O938        C939   1.259       .  A
C939        O940   1.282       .  A
C939       C1543   1.463   1_545  S
O940       Cr945   2.042       .  S
O941       Cr945   1.931       .  S
O941        C942   1.249       .  A
C942        C964   1.454       .  S
Cr943       O946   1.767       .  S
Cr944       O946   1.776       .  S
Cr945       O946   1.768       .  S
O947       Cr965   1.932       .  S
O947       C1747   1.246       .  A
O948       Cr965   2.042       .  S
O948        C949   1.279       .  A
C949        O950   1.255       .  A
C949       C1841   1.463       .  S
O950       Cr966   1.942       .  S
O951        C952   1.266       .  A
C952        O953   1.254       .  A
O954        C955   1.271       .  A
C955       C1024   1.462       .  S
O956       Cr965   2.025       .  S
O956        C964   1.275       .  A
O957       Cr965   1.951       .  S
O957        C958   1.246       .  A
C958        O959   1.266       .  A
C958       C1021   1.463       .  S
O959       Cr966   2.039       .  S
O960       Cr966   1.965       .  S
O960        C961   1.259       .  A
C961        O962   1.282       .  A
C961       C1345   1.463   1_545  S
O962       Cr967   2.043       .  S
O963       Cr967   1.931       .  S
O963        C964   1.249       .  A
Cr965       O968   1.767       .  S
Cr966      O1743   2.037       .  S
Cr966       O968   1.776       .  S
Cr967      O1745   1.964       .  S
Cr967      O1746   2.042       .  S
Cr967       O968   1.768       .  S
O969       Cr987   1.933       .  S
O969       C1769   1.246       .  A
O970       Cr987   2.043       .  S
O970        C971   1.280       .  A
C971        O972   1.255       .  A
C971       C1819   1.463       .  S
O972       Cr988   1.942       .  S
O973        C974   1.266       .  A
C974        O975   1.254       .  A
C974        C996   1.468       .  S
O976        C977   1.270       .  A
C977       C1046   1.462       .  S
O978       Cr987   2.026       .  S
O978        C986   1.275       .  A
O979       Cr987   1.951       .  S
O979        C980   1.246       .  A
C980        O981   1.266       .  A
C980       C1043   1.462       .  S
O981       Cr988   2.039       .  S
O982       Cr988   1.965       .  S
O982        C983   1.259       .  A
C983        O984   1.282       .  A
O984       Cr989   2.042       .  S
O985       Cr989   1.931       .  S
O985        C986   1.249       .  A
C986       C1008   1.455       .  S
Cr987       O990   1.767       .  S
Cr988      O1765   2.037       .  S
Cr988       O990   1.776       .  S
Cr989      O1767   1.964       .  S
Cr989      O1768   2.042       .  S
Cr989       O990   1.768       .  S
O991      Cr1009   1.932       .  S
O991       C1527   1.246   1_545  A
O992      Cr1009   2.043       .  S
O992        C993   1.280       .  A
C993        O994   1.255   1_545  A
C993       C1401   1.463   1_545  S
O994      Cr1010   1.942   1_565  S
O995      Cr1274   2.037       .  S
O995        C996   1.266       .  A
C996        O997   1.254       .  A
O997      Cr1275   1.964       .  S
O998      Cr1275   2.042       .  S
O998        C999   1.271       .  A
C999       O1255   1.246       .  A
O1000     Cr1009   2.026       .  S
O1000      C1008   1.275       .  A
O1001     Cr1009   1.950       .  S
O1001      C1002   1.246       .  A
C1002      O1003   1.266       .  A
O1003     Cr1010   2.039       .  S
O1004     Cr1010   1.965       .  S
O1004      C1005   1.259       .  A
C1005      O1006   1.282       .  A
C1005      C1037   1.463       .  S
O1006     Cr1011   2.042       .  S
O1007     Cr1011   1.931       .  S
O1007      C1008   1.249       .  A
Cr1009     O1012   1.767       .  S
Cr1010     O1523   2.037       .  S
Cr1010     O1012   1.776       .  S
Cr1011     O1525   1.964   1_545  S
Cr1011     O1526   2.042   1_545  S
Cr1011     O1012   1.767       .  S
O1013     Cr1031   1.932       .  S
O1013      C1285   1.246       .  A
O1014     Cr1031   2.043       .  S
O1014      C1015   1.280       .  A
C1015      O1016   1.255       .  A
C1015      C1203   1.463       .  S
O1016     Cr1032   1.942       .  S
O1017     Cr1560   2.037       .  S
O1017      C1018   1.266   1_565  A
C1018      O1019   1.254       .  A
C1018      C1040   1.468       .  S
O1019     Cr1561   1.964   1_545  S
O1020     Cr1561   2.043   1_545  S
O1020      C1021   1.271       .  A
C1021      O1541   1.246   1_545  A
O1022     Cr1031   2.026       .  S
O1022      C1030   1.275       .  A
O1023     Cr1031   1.951       .  S
O1023      C1024   1.246       .  A
C1024      O1025   1.266       .  A
O1025     Cr1032   2.039       .  S
O1026     Cr1032   1.965       .  S
O1026      C1027   1.259       .  A
C1027      O1028   1.282       .  A
O1028     Cr1033   2.043       .  S
O1029     Cr1033   1.931       .  S
O1029      C1030   1.249       .  A
C1030      C1052   1.455       .  S
Cr1031     O1034   1.767       .  S
Cr1032     O1281   2.037       .  S
Cr1032     O1034   1.776       .  S
Cr1033     O1283   1.964       .  S
Cr1033     O1284   2.043       .  S
Cr1033     O1034   1.768       .  S
O1035     Cr1053   1.933       .  S
O1035      C1043   1.246       .  A
O1036     Cr1053   2.043       .  S
O1036      C1037   1.280       .  A
C1037      O1038   1.255       .  A
O1038     Cr1054   1.942       .  S
O1039     Cr1054   2.037       .  S
O1039      C1040   1.266       .  A
C1040      O1041   1.254       .  A
O1041     Cr1055   1.964       .  S
O1042     Cr1055   2.042       .  S
O1042      C1043   1.270       .  A
O1044     Cr1053   2.026       .  S
O1044      C1052   1.275       .  A
O1045     Cr1053   1.951       .  S
O1045      C1046   1.246       .  A
C1046      O1047   1.266       .  A
O1047     Cr1054   2.039       .  S
O1048     Cr1054   1.965       .  S
O1048      C1049   1.259       .  A
C1049      O1050   1.282       .  A
O1050     Cr1055   2.042       .  S
O1051     Cr1055   1.931       .  S
O1051      C1052   1.249       .  A
Cr1053     O1056   1.767       .  S
Cr1054     O1056   1.776       .  S
Cr1055     O1056   1.768       .  S
O1057     Cr1075   1.933       .  S
O1058     Cr1075   2.043       .  S
O1058      C1059   1.280       .  A
C1059      O1060   1.255       .  A
O1060     Cr1076   1.942   1_554  S
O1061     Cr1868   2.037       .  S
O1061      C1062   1.266       .  A
C1062      O1063   1.254       .  A
C1062      C1084   1.468       .  S
O1063     Cr1869   1.964       .  S
O1064     Cr1869   2.042       .  S
O1064      C1065   1.271       .  A
C1065      O1849   1.246   1_556  A
C1065      C1178   1.462       .  S
O1066     Cr1075   2.026   1_556  S
O1066      C1074   1.275       .  A
O1067     Cr1075   1.951       .  S
O1067      C1068   1.246       .  A
C1068      O1069   1.266       .  A
C1068      C1175   1.462       .  S
O1069     Cr1076   2.039   1_554  S
O1070     Cr1076   1.965       .  S
O1070      C1071   1.259       .  A
C1071      O1072   1.282       .  A
C1071      C1191   1.463       .  S
O1072     Cr1077   2.042       .  S
O1073     Cr1077   1.931       .  S
O1073      C1074   1.249       .  A
C1074      C1096   1.455       .  S
Cr1075     O1078   1.767   1_554  S
Cr1076     O1078   1.776       .  S
Cr1077     O1078   1.768       .  S
O1079     Cr1097   1.932       .  S
O1079      C1351   1.246       .  A
O1080     Cr1097   2.043       .  S
O1080      C1081   1.280       .  A
C1081      O1082   1.255       .  A
C1081      C1489   1.463       .  S
O1082     Cr1098   1.942       .  S
O1083      C1084   1.266       .  A
C1084      O1085   1.254       .  A
O1086      C1087   1.271       .  A
C1087      C1200   1.463       .  S
O1088     Cr1097   2.026       .  S
O1088      C1096   1.275       .  A
O1089     Cr1097   1.950       .  S
O1089      C1090   1.246       .  A
C1090      O1091   1.266       .  A
C1090      C1197   1.462       .  S
O1091     Cr1098   2.039       .  S
O1092     Cr1098   1.965       .  S
O1092      C1093   1.259       .  A
C1093      O1094   1.282       .  A
C1093      C1169   1.463       .  S
O1094     Cr1099   2.042       .  S
O1095     Cr1099   1.931       .  S
O1095      C1096   1.249       .  A
Cr1097     O1100   1.767       .  S
Cr1098     O1347   2.037       .  S
Cr1098     O1100   1.776       .  S
Cr1099     O1349   1.964       .  S
Cr1099     O1350   2.042       .  S
Cr1099     O1100   1.768       .  S
O1101     Cr1119   1.933       .  S
O1101      C1109   1.246       .  A
O1102     Cr1119   2.042       .  S
O1102      C1103   1.279       .  A
C1103      O1104   1.255       .  A
C1103      C1247   1.463       .  S
O1104     Cr1120   1.942       .  S
O1105     Cr1120   2.037       .  S
O1105      C1106   1.266       .  A
C1106      O1107   1.254       .  A
C1106      C1128   1.468       .  S
O1107     Cr1121   1.964       .  S
O1108     Cr1121   2.042       .  S
O1108      C1109   1.271       .  A
C1109      C1266   1.462       .  S
O1110     Cr1119   2.026       .  S
O1110      C1118   1.275       .  A
O1111     Cr1119   1.951       .  S
O1111      C1112   1.246       .  A
C1112      O1113   1.266       .  A
C1112      C1263   1.462       .  S
O1113     Cr1120   2.039       .  S
O1114     Cr1120   1.965       .  S
O1114      C1115   1.259       .  A
C1115      O1116   1.282       .  A
C1115      C1411   1.463       .  S
O1116     Cr1121   2.042       .  S
O1117     Cr1121   1.931       .  S
O1117      C1118   1.249       .  A
C1118      C1140   1.454       .  S
Cr1119     O1122   1.767       .  S
Cr1120     O1122   1.776       .  S
Cr1121     O1122   1.768       .  S
O1123     Cr1141   1.932       .  S
O1124     Cr1141   2.042       .  S
O1124      C1125   1.279       .  A
C1125      O1126   1.255       .  A
O1126     Cr1142   1.942       .  S
O1127     Cr1934   2.037       .  S
O1127      C1128   1.266       .  A
C1128      O1129   1.254       .  A
O1129     Cr1935   1.964       .  S
O1130     Cr1935   2.042       .  S
O1130      C1131   1.271       .  A
C1131      O1915   1.246       .  A
C1131      C1156   1.462       .  S
O1132     Cr1141   2.025       .  S
O1132      C1140   1.275       .  A
O1133     Cr1141   1.951       .  S
O1133      C1134   1.246       .  A
C1134      O1135   1.266       .  A
C1134      C1153   1.462       .  S
O1135     Cr1142   2.039       .  S
O1136     Cr1142   1.965       .  S
O1136      C1137   1.259       .  A
C1137      O1138   1.282       .  A
C1137      C1521   1.463       .  S
O1138     Cr1143   2.042       .  S
O1139     Cr1143   1.931       .  S
O1139      C1140   1.249       .  A
Cr1141     O1144   1.767       .  S
Cr1142     O1144   1.776       .  S
Cr1143     O1144   1.768       .  S
O1145     Cr1163   1.932       .  S
O1146     Cr1163   2.043       .  S
O1146      C1147   1.279       .  A
C1147      O1148   1.255       .  A
O1148     Cr1164   1.942       .  S
O1149     Cr1428   2.037       .  S
O1149      C1150   1.266       .  A
C1150      O1151   1.254       .  A
C1150      C1172   1.468       .  S
O1151     Cr1429   1.964       .  S
O1152     Cr1429   2.042       .  S
O1152      C1153   1.271       .  A
C1153      O1409   1.246       .  A
O1154     Cr1163   2.026       .  S
O1154      C1162   1.275       .  A
O1155     Cr1163   1.951       .  S
O1155      C1156   1.246       .  A
C1156      O1157   1.266       .  A
O1157     Cr1164   2.039       .  S
O1158     Cr1164   1.965       .  S
O1158      C1159   1.259       .  A
C1159      O1160   1.282       .  A
C1159      C1851   1.463       .  S
O1160     Cr1165   2.043       .  S
O1161     Cr1165   1.931       .  S
O1161      C1162   1.249       .  A
C1162      C1184   1.455       .  S
Cr1163     O1166   1.767       .  S
Cr1164     O1166   1.776       .  S
Cr1165     O1166   1.768       .  S
O1167     Cr1185   1.933       .  S
O1167      C1175   1.246       .  A
O1168     Cr1185   2.043   1_556  S
O1168      C1169   1.280       .  A
C1169      O1170   1.255       .  A
O1170     Cr1186   1.942   1_556  S
O1171     Cr1186   2.037       .  S
O1171      C1172   1.266       .  A
C1172      O1173   1.254       .  A
O1173     Cr1187   1.964       .  S
O1174     Cr1187   2.042       .  S
O1174      C1175   1.271       .  A
O1176     Cr1185   2.026       .  S
O1176      C1184   1.275       .  A
O1177     Cr1185   1.951   1_556  S
O1177      C1178   1.246       .  A
C1178      O1179   1.266       .  A
O1179     Cr1186   2.039   1_556  S
O1180     Cr1186   1.965       .  S
O1180      C1181   1.259       .  A
C1181      O1182   1.282       .  A
C1181      C1917   1.463       .  S
O1182     Cr1187   2.042       .  S
O1183     Cr1187   1.931       .  S
O1183      C1184   1.249       .  A
Cr1185     O1188   1.767       .  S
Cr1186     O1188   1.776       .  S
Cr1187     O1188   1.768       .  S
O1189     Cr1207   1.933       .  S
O1189      C1197   1.246       .  A
O1190     Cr1207   2.042       .  S
O1190      C1191   1.279       .  A
C1191      O1192   1.255       .  A
O1192     Cr1208   1.942       .  S
O1193     Cr1208   2.037       .  S
O1193      C1194   1.266       .  A
C1194      O1195   1.254       .  A
C1194      C1216   1.468       .  S
O1195     Cr1209   1.964       .  S
O1196     Cr1209   2.042       .  S
O1196      C1197   1.271       .  A
O1198     Cr1207   2.026       .  S
O1198      C1206   1.275       .  A
O1199     Cr1207   1.951       .  S
O1199      C1200   1.246       .  A
C1200      O1201   1.266       .  A
O1201     Cr1208   2.039       .  S
O1202     Cr1208   1.965       .  S
O1202      C1203   1.259       .  A
C1203      O1204   1.282       .  A
O1204     Cr1209   2.042       .  S
O1205     Cr1209   1.931       .  S
O1205      C1206   1.249       .  A
C1206      C1228   1.454       .  S
Cr1207     O1210   1.767       .  S
Cr1208     O1210   1.776       .  S
Cr1209     O1210   1.768       .  S
O1211     Cr1229   1.932       .  S
O1211      C2011   1.246       .  A
O1212     Cr1229   2.042       .  S
O1212      C1213   1.279       .  A
C1213      O1214   1.255       .  A
C1213      C2105   1.463       .  S
O1214     Cr1230   1.942       .  S
O1215      C1216   1.266       .  A
C1216      O1217   1.254       .  A
O1218      C1219   1.271       .  A
C1219      C1288   1.462       .  S
O1220     Cr1229   2.025       .  S
O1220      C1228   1.275       .  A
O1221     Cr1229   1.951       .  S
O1221      C1222   1.246       .  A
C1222      O1223   1.266       .  A
C1222      C1285   1.463       .  S
O1223     Cr1230   2.039       .  S
O1224     Cr1230   1.965       .  S
O1224      C1225   1.259       .  A
C1225      O1226   1.282       .  A
O1226     Cr1231   2.043       .  S
O1227     Cr1231   1.931       .  S
O1227      C1228   1.249       .  A
Cr1229     O1232   1.767       .  S
Cr1230     O2007   2.037       .  S
Cr1230     O1232   1.776       .  S
Cr1231     O2009   1.964       .  S
Cr1231     O2010   2.042       .  S
Cr1231     O1232   1.768       .  S
O1233     Cr1251   1.933       .  S
O1233      C2033   1.246       .  A
O1234     Cr1251   2.043       .  S
O1234      C1235   1.280       .  A
C1235      O1236   1.255       .  A
C1235      C2083   1.463       .  S
O1236     Cr1252   1.942       .  S
O1237      C1238   1.266       .  A
C1238      O1239   1.254       .  A
C1238      C1260   1.468       .  S
O1240      C1241   1.270       .  A
C1241      C1310   1.462       .  S
O1242     Cr1251   2.026       .  S
O1242      C1250   1.275       .  A
O1243     Cr1251   1.951       .  S
O1243      C1244   1.246       .  A
C1244      O1245   1.266       .  A
C1244      C1307   1.462       .  S
O1245     Cr1252   2.039       .  S
O1246     Cr1252   1.965       .  S
O1246      C1247   1.259       .  A
C1247      O1248   1.282       .  A
O1248     Cr1253   2.042       .  S
O1249     Cr1253   1.931       .  S
O1249      C1250   1.249       .  A
C1250      C1272   1.455       .  S
Cr1251     O1254   1.767       .  S
Cr1252     O2029   2.037       .  S
Cr1252     O1254   1.776       .  S
Cr1253     O2031   1.964       .  S
Cr1253     O2032   2.042       .  S
Cr1253     O1254   1.768       .  S
O1255     Cr1273   1.932       .  S
O1256     Cr1273   2.043       .  S
O1256      C1257   1.280       .  A
C1257      O1258   1.255       .  A
O1258     Cr1274   1.942       .  S
O1259     Cr1538   2.037       .  S
O1259      C1260   1.266       .  A
C1260      O1261   1.254       .  A
O1261     Cr1539   1.964       .  S
O1262     Cr1539   2.042       .  S
O1262      C1263   1.271       .  A
C1263      O1519   1.246       .  A
O1264     Cr1273   2.026       .  S
O1264      C1272   1.275       .  A
O1265     Cr1273   1.950       .  S
O1265      C1266   1.246       .  A
C1266      O1267   1.266       .  A
O1267     Cr1274   2.039       .  S
O1268     Cr1274   1.965       .  S
O1268      C1269   1.259       .  A
C1269      O1270   1.282       .  A
C1269      C1301   1.463       .  S
O1270     Cr1275   2.042       .  S
O1271     Cr1275   1.931       .  S
O1271      C1272   1.249       .  A
Cr1273     O1276   1.767       .  S
Cr1274     O1276   1.776       .  S
Cr1275     O1276   1.767       .  S
O1277     Cr1295   1.932       .  S
O1277      C1549   1.246       .  A
O1278     Cr1295   2.043       .  S
O1278      C1279   1.280       .  A
C1279      O1280   1.255       .  A
C1279      C1467   1.463       .  S
O1280     Cr1296   1.942       .  S
O1281      C1282   1.266       .  A
C1282      O1283   1.254       .  A
C1282      C1304   1.468       .  S
O1284      C1285   1.271       .  A
O1286     Cr1295   2.026       .  S
O1286      C1294   1.275       .  A
O1287     Cr1295   1.951       .  S
O1287      C1288   1.246       .  A
C1288      O1289   1.266       .  A
O1289     Cr1296   2.039       .  S
O1290     Cr1296   1.965       .  S
O1290      C1291   1.259       .  A
C1291      O1292   1.282       .  A
O1292     Cr1297   2.043       .  S
O1293     Cr1297   1.931       .  S
O1293      C1294   1.249       .  A
C1294      C1316   1.455       .  S
Cr1295     O1298   1.767       .  S
Cr1296     O1545   2.037       .  S
Cr1296     O1298   1.776       .  S
Cr1297     O1547   1.964       .  S
Cr1297     O1548   2.043       .  S
Cr1297     O1298   1.768       .  S
O1299     Cr1317   1.933       .  S
O1299      C1307   1.246       .  A
O1300     Cr1317   2.043       .  S
O1300      C1301   1.280       .  A
C1301      O1302   1.255       .  A
O1302     Cr1318   1.942       .  S
O1303     Cr1318   2.037       .  S
O1303      C1304   1.266       .  A
C1304      O1305   1.254       .  A
O1305     Cr1319   1.964       .  S
O1306     Cr1319   2.042       .  S
O1306      C1307   1.270       .  A
O1308     Cr1317   2.026       .  S
O1308      C1316   1.275       .  A
O1309     Cr1317   1.951       .  S
O1309      C1310   1.246       .  A
C1310      O1311   1.266       .  A
O1311     Cr1318   2.039       .  S
O1312     Cr1318   1.965       .  S
O1312      C1313   1.259       .  A
C1313      O1314   1.282       .  A
O1314     Cr1319   2.042       .  S
O1315     Cr1319   1.931       .  S
O1315      C1316   1.249       .  A
Cr1317     O1320   1.767       .  S
Cr1318     O1320   1.776       .  S
Cr1319     O1320   1.768       .  S
O1321     Cr1339   1.933       .  S
O1322     Cr1339   2.043       .  S
O1322      C1323   1.280       .  A
C1323      O1324   1.255       .  A
O1324     Cr1340   1.942   1_554  S
O1325     Cr2132   2.037       .  S
O1325      C1326   1.266       .  A
C1326      O1327   1.254       .  A
C1326      C1348   1.468       .  S
O1327     Cr2133   1.964       .  S
O1328     Cr2133   2.042       .  S
O1328      C1329   1.271       .  A
C1329      O2113   1.246   1_556  A
C1329      C1442   1.462       .  S
O1330     Cr1339   2.026   1_556  S
O1330      C1338   1.275       .  A
O1331     Cr1339   1.951       .  S
O1331      C1332   1.246       .  A
C1332      O1333   1.266       .  A
C1332      C1439   1.462       .  S
O1333     Cr1340   2.039   1_554  S
O1334     Cr1340   1.965       .  S
O1334      C1335   1.259       .  A
C1335      O1336   1.282       .  A
C1335      C1455   1.463       .  S
O1336     Cr1341   2.042       .  S
O1337     Cr1341   1.931       .  S
O1337      C1338   1.249       .  A
C1338      C1360   1.455       .  S
Cr1339     O1342   1.767   1_554  S
Cr1340     O1342   1.776       .  S
Cr1341     O1342   1.768       .  S
O1343     Cr1361   1.932       .  S
O1344     Cr1361   2.043       .  S
O1344      C1345   1.280       .  A
C1345      O1346   1.255       .  A
O1346     Cr1362   1.942       .  S
O1347      C1348   1.266       .  A
C1348      O1349   1.254       .  A
O1350      C1351   1.271       .  A
C1351      C1464   1.463       .  S
O1352     Cr1361   2.026       .  S
O1352      C1360   1.275       .  A
O1353     Cr1361   1.950       .  S
O1353      C1354   1.246       .  A
C1354      O1355   1.266       .  A
C1354      C1461   1.462       .  S
O1355     Cr1362   2.039       .  S
O1356     Cr1362   1.965       .  S
O1356      C1357   1.259       .  A
C1357      O1358   1.282       .  A
C1357      C1433   1.463       .  S
O1358     Cr1363   2.042       .  S
O1359     Cr1363   1.931       .  S
O1359      C1360   1.249       .  A
Cr1361     O1364   1.767       .  S
Cr1362     O1364   1.776       .  S
Cr1363     O1364   1.768       .  S
O1365     Cr1383   1.933       .  S
O1365      C1373   1.246       .  A
O1366     Cr1383   2.042       .  S
O1366      C1367   1.279       .  A
C1367      O1368   1.255       .  A
C1367      C1511   1.463       .  S
O1368     Cr1384   1.942       .  S
O1369     Cr1384   2.037       .  S
O1369      C1370   1.266       .  A
C1370      O1371   1.254       .  A
C1370      C1392   1.468       .  S
O1371     Cr1385   1.964       .  S
O1372     Cr1385   2.042       .  S
O1372      C1373   1.271       .  A
C1373      C1530   1.462       .  S
O1374     Cr1383   2.026       .  S
O1374      C1382   1.275       .  A
O1375     Cr1383   1.951       .  S
O1375      C1376   1.246       .  A
C1376      O1377   1.266       .  A
C1376      C1527   1.462       .  S
O1377     Cr1384   2.039       .  S
O1378     Cr1384   1.965       .  S
O1378      C1379   1.259       .  A
C1379      O1380   1.282       .  A
O1380     Cr1385   2.042       .  S
O1381     Cr1385   1.931       .  S
O1381      C1382   1.249       .  A
C1382      C1404   1.454       .  S
Cr1383     O1386   1.767       .  S
Cr1384     O1386   1.776       .  S
Cr1385     O1386   1.768       .  S
O1387     Cr1405   1.932       .  S
O1388     Cr1405   2.042       .  S
O1388      C1389   1.279       .  A
C1389      O1390   1.255       .  A
O1390     Cr1406   1.942       .  S
O1391     Cr2198   2.037       .  S
O1391      C1392   1.266       .  A
C1392      O1393   1.254       .  A
O1393     Cr2199   1.964       .  S
O1394     Cr2199   2.042       .  S
O1394      C1395   1.271       .  A
C1395      O2179   1.246       .  A
C1395      C1420   1.462       .  S
O1396     Cr1405   2.025       .  S
O1396      C1404   1.275       .  A
O1397     Cr1405   1.951       .  S
O1397      C1398   1.246       .  A
C1398      O1399   1.266       .  A
C1398      C1417   1.462       .  S
O1399     Cr1406   2.039       .  S
O1400     Cr1406   1.965       .  S
O1400      C1401   1.259       .  A
C1401      O1402   1.282       .  A
O1402     Cr1407   2.042       .  S
O1403     Cr1407   1.931       .  S
O1403      C1404   1.249       .  A
Cr1405     O1408   1.767       .  S
Cr1406     O1408   1.776       .  S
Cr1407     O1408   1.768       .  S
O1409     Cr1427   1.932       .  S
O1410     Cr1427   2.043       .  S
O1410      C1411   1.279       .  A
C1411      O1412   1.255       .  A
O1412     Cr1428   1.942       .  S
O1413      C1414   1.266   1_545  A
C1414      O1415   1.254       .  A
C1414      C1436   1.468       .  S
O1416      C1417   1.271       .  A
O1418     Cr1427   2.026       .  S
O1418      C1426   1.275       .  A
O1419     Cr1427   1.951       .  S
O1419      C1420   1.246       .  A
C1420      O1421   1.266       .  A
O1421     Cr1428   2.039       .  S
O1422     Cr1428   1.965       .  S
O1422      C1423   1.259       .  A
C1423      O1424   1.282       .  A
C1423      C2115   1.463       .  S
O1424     Cr1429   2.043       .  S
O1425     Cr1429   1.931       .  S
O1425      C1426   1.249       .  A
C1426      C1448   1.455       .  S
Cr1427     O1430   1.767       .  S
Cr1428     O1430   1.776       .  S
Cr1429     O1430   1.768       .  S
O1431     Cr1449   1.933       .  S
O1431      C1439   1.246       .  A
O1432     Cr1449   2.043   1_556  S
O1432      C1433   1.280       .  A
C1433      O1434   1.255       .  A
O1434     Cr1450   1.942   1_556  S
O1435     Cr1450   2.037       .  S
O1435      C1436   1.266       .  A
C1436      O1437   1.254       .  A
O1437     Cr1451   1.964       .  S
O1438     Cr1451   2.042       .  S
O1438      C1439   1.271       .  A
O1440     Cr1449   2.026       .  S
O1440      C1448   1.275       .  A
O1441     Cr1449   1.951   1_556  S
O1441      C1442   1.246       .  A
C1442      O1443   1.266       .  A
O1443     Cr1450   2.039   1_556  S
O1444     Cr1450   1.965       .  S
O1444      C1445   1.259       .  A
C1445      O1446   1.282       .  A
C1445      C2181   1.463       .  S
O1446     Cr1451   2.042       .  S
O1447     Cr1451   1.931       .  S
O1447      C1448   1.249       .  A
Cr1449     O1452   1.767       .  S
Cr1450     O1452   1.776       .  S
Cr1451     O1452   1.768       .  S
O1453     Cr1471   1.933       .  S
O1453      C1461   1.246       .  A
O1454     Cr1471   2.042       .  S
O1454      C1455   1.279       .  A
C1455      O1456   1.255       .  A
O1456     Cr1472   1.942       .  S
O1457     Cr1472   2.037       .  S
O1457      C1458   1.266       .  A
C1458      O1459   1.254       .  A
C1458      C1480   1.468       .  S
O1459     Cr1473   1.964       .  S
O1460     Cr1473   2.042       .  S
O1460      C1461   1.271       .  A
O1462     Cr1471   2.026       .  S
O1462      C1470   1.275       .  A
O1463     Cr1471   1.951       .  S
O1463      C1464   1.246       .  A
C1464      O1465   1.266       .  A
O1465     Cr1472   2.039       .  S
O1466     Cr1472   1.965       .  S
O1466      C1467   1.259       .  A
C1467      O1468   1.282       .  A
O1468     Cr1473   2.042       .  S
O1469     Cr1473   1.931       .  S
O1469      C1470   1.249       .  A
C1470      C1492   1.454       .  S
Cr1471     O1474   1.767       .  S
Cr1472     O1474   1.776       .  S
Cr1473     O1474   1.768       .  S
O1475     Cr1493   1.932       .  S
O1475      C2275   1.246       .  A
O1476     Cr1493   2.042       .  S
O1476      C1477   1.279       .  A
C1477      O1478   1.255       .  A
C1477      C2369   1.463       .  S
O1478     Cr1494   1.942       .  S
O1479      C1480   1.266       .  A
C1480      O1481   1.254       .  A
O1482      C1483   1.271       .  A
C1483      C1552   1.462       .  S
O1484     Cr1493   2.025       .  S
O1484      C1492   1.275       .  A
O1485     Cr1493   1.951       .  S
O1485      C1486   1.246       .  A
C1486      O1487   1.266       .  A
C1486      C1549   1.463       .  S
O1487     Cr1494   2.039       .  S
O1488     Cr1494   1.965       .  S
O1488      C1489   1.259       .  A
C1489      O1490   1.282       .  A
O1490     Cr1495   2.043       .  S
O1491     Cr1495   1.931       .  S
O1491      C1492   1.249       .  A
Cr1493     O1496   1.767       .  S
Cr1494     O2271   2.037       .  S
Cr1494     O1496   1.776       .  S
Cr1495     O2273   1.964       .  S
Cr1495     O2274   2.042       .  S
Cr1495     O1496   1.768       .  S
O1497     Cr1515   1.933       .  S
O1497      C2297   1.246       .  A
O1498     Cr1515   2.043       .  S
O1498      C1499   1.280       .  A
C1499      O1500   1.255       .  A
C1499      C2347   1.463       .  S
O1500     Cr1516   1.942       .  S
O1501      C1502   1.266       .  A
C1502      O1503   1.254       .  A
C1502      C1524   1.468       .  S
O1504      C1505   1.270       .  A
C1505      C1574   1.462       .  S
O1506     Cr1515   2.026       .  S
O1506      C1514   1.275       .  A
O1507     Cr1515   1.951       .  S
O1507      C1508   1.246       .  A
C1508      O1509   1.266       .  A
C1508      C1571   1.462       .  S
O1509     Cr1516   2.039       .  S
O1510     Cr1516   1.965       .  S
O1510      C1511   1.259       .  A
C1511      O1512   1.282       .  A
O1512     Cr1517   2.042       .  S
O1513     Cr1517   1.931       .  S
O1513      C1514   1.249       .  A
C1514      C1536   1.455       .  S
Cr1515     O1518   1.767       .  S
Cr1516     O2293   2.037       .  S
Cr1516     O1518   1.776       .  S
Cr1517     O2295   1.964       .  S
Cr1517     O2296   2.042       .  S
Cr1517     O1518   1.768       .  S
O1519     Cr1537   1.932       .  S
O1520     Cr1537   2.043       .  S
O1520      C1521   1.280       .  A
C1521      O1522   1.255       .  A
O1522     Cr1538   1.942       .  S
O1523      C1524   1.266   1_545  A
C1524      O1525   1.254       .  A
O1526      C1527   1.271       .  A
O1528     Cr1537   2.026       .  S
O1528      C1536   1.275       .  A
O1529     Cr1537   1.950       .  S
O1529      C1530   1.246       .  A
C1530      O1531   1.266       .  A
O1531     Cr1538   2.039       .  S
O1532     Cr1538   1.965       .  S
O1532      C1533   1.259       .  A
C1533      O1534   1.282       .  A
C1533      C1565   1.463       .  S
O1534     Cr1539   2.042       .  S
O1535     Cr1539   1.931       .  S
O1535      C1536   1.249       .  A
Cr1537     O1540   1.767       .  S
Cr1538     O1540   1.776       .  S
Cr1539     O1540   1.767       .  S
O1541     Cr1559   1.932       .  S
O1542     Cr1559   2.043       .  S
O1542      C1543   1.280       .  A
C1543      O1544   1.255       .  A
O1544     Cr1560   1.942       .  S
O1545      C1546   1.266       .  A
C1546      O1547   1.254       .  A
C1546      C1568   1.468       .  S
O1548      C1549   1.271       .  A
O1550     Cr1559   2.026       .  S
O1550      C1558   1.275       .  A
O1551     Cr1559   1.951       .  S
O1551      C1552   1.246       .  A
C1552      O1553   1.266       .  A
O1553     Cr1560   2.039       .  S
O1554     Cr1560   1.965       .  S
O1554      C1555   1.259       .  A
C1555      O1556   1.282       .  A
O1556     Cr1561   2.043       .  S
O1557     Cr1561   1.931       .  S
O1557      C1558   1.249       .  A
C1558      C1580   1.455       .  S
Cr1559     O1562   1.767       .  S
Cr1560     O1562   1.776       .  S
Cr1561     O1562   1.768       .  S
O1563     Cr1581   1.933       .  S
O1563      C1571   1.246       .  A
O1564     Cr1581   2.043       .  S
O1564      C1565   1.280       .  A
C1565      O1566   1.255       .  A
O1566     Cr1582   1.942       .  S
O1567     Cr1582   2.037       .  S
O1567      C1568   1.266       .  A
C1568      O1569   1.254       .  A
O1569     Cr1583   1.964       .  S
O1570     Cr1583   2.042       .  S
O1570      C1571   1.270       .  A
O1572     Cr1581   2.026       .  S
O1572      C1580   1.275       .  A
O1573     Cr1581   1.951       .  S
O1573      C1574   1.246       .  A
C1574      O1575   1.266       .  A
O1575     Cr1582   2.039       .  S
O1576     Cr1582   1.965       .  S
O1576      C1577   1.259       .  A
C1577      O1578   1.282       .  A
O1578     Cr1583   2.042       .  S
O1579     Cr1583   1.931       .  S
O1579      C1580   1.249       .  A
Cr1581     O1584   1.767       .  S
Cr1582     O1584   1.776       .  S
Cr1583     O1584   1.768       .  S
O1585     Cr1603   1.933       .  S
O1586     Cr1603   2.043       .  S
O1586      C1587   1.280       .  A
C1587      O1588   1.255       .  A
O1588     Cr1604   1.942   1_554  S
O1589      C1590   1.266   1_455  A
C1590      O1591   1.254       .  A
C1590      C1612   1.468       .  S
O1592      C1593   1.271       .  A
C1593      C1706   1.462       .  S
O1594     Cr1603   2.026   1_556  S
O1594      C1602   1.275       .  A
O1595     Cr1603   1.951       .  S
O1595      C1596   1.246       .  A
C1596      O1597   1.266       .  A
C1596      C1703   1.462       .  S
O1597     Cr1604   2.039   1_554  S
O1598     Cr1604   1.965       .  S
O1598      C1599   1.259       .  A
C1599      O1600   1.282       .  A
C1599      C1719   1.463       .  S
O1600     Cr1605   2.042       .  S
O1601     Cr1605   1.931       .  S
O1601      C1602   1.249       .  A
C1602      C1624   1.455       .  S
Cr1603     O1606   1.767   1_554  S
Cr1604     O1606   1.776       .  S
Cr1605     O1606   1.768       .  S
O1607     Cr1625   1.932       .  S
O1607      C1879   1.246       .  A
O1608     Cr1625   2.043       .  S
O1608      C1609   1.280       .  A
C1609      O1610   1.255       .  A
C1609      C2017   1.463       .  S
O1610     Cr1626   1.942       .  S
O1611     Cr2154   2.037       .  S
O1611      C1612   1.266   1_565  A
C1612      O1613   1.254       .  A
O1613     Cr2155   1.964   1_545  S
O1614     Cr2155   2.042   1_545  S
O1614      C1615   1.271       .  A
C1615      O2135   1.246   1_545  A
C1615      C1728   1.463       .  S
O1616     Cr1625   2.026       .  S
O1616      C1624   1.275       .  A
O1617     Cr1625   1.950       .  S
O1617      C1618   1.246       .  A
C1618      O1619   1.266       .  A
C1618      C1725   1.462       .  S
O1619     Cr1626   2.039       .  S
O1620     Cr1626   1.965       .  S
O1620      C1621   1.259       .  A
C1621      O1622   1.282       .  A
C1621      C1697   1.463       .  S
O1622     Cr1627   2.042       .  S
O1623     Cr1627   1.931       .  S
O1623      C1624   1.249       .  A
Cr1625     O1628   1.767       .  S
Cr1626     O1875   2.037       .  S
Cr1626     O1628   1.776       .  S
Cr1627     O1877   1.964       .  S
Cr1627     O1878   2.042       .  S
Cr1627     O1628   1.768       .  S
O1629     Cr1647   1.933       .  S
O1629      C1637   1.246       .  A
O1630     Cr1647   2.042       .  S
O1630      C1631   1.279       .  A
C1631      O1632   1.255       .  A
C1631      C1775   1.463       .  S
O1632     Cr1648   1.942       .  S
O1633     Cr1648   2.037       .  S
O1633      C1634   1.266       .  A
C1634      O1635   1.254       .  A
C1634      C1656   1.468       .  S
O1635     Cr1649   1.964       .  S
O1636     Cr1649   2.042       .  S
O1636      C1637   1.271       .  A
C1637      C1794   1.462       .  S
O1638     Cr1647   2.026       .  S
O1638      C1646   1.275       .  A
O1639     Cr1647   1.951       .  S
O1639      C1640   1.246       .  A
C1640      O1641   1.266       .  A
C1640      C1791   1.462       .  S
O1641     Cr1648   2.039       .  S
O1642     Cr1648   1.965       .  S
O1642      C1643   1.259       .  A
C1643      O1644   1.282       .  A
C1643      C1939   1.463       .  S
O1644     Cr1649   2.042       .  S
O1645     Cr1649   1.931       .  S
O1645      C1646   1.249       .  A
C1646      C1668   1.454       .  S
Cr1647     O1650   1.767       .  S
Cr1648     O1650   1.776       .  S
Cr1649     O1650   1.768       .  S
O1651     Cr1669   1.932       .  S
O1652     Cr1669   2.042       .  S
O1652      C1653   1.279       .  A
C1653      O1654   1.255       .  A
O1654     Cr1670   1.942       .  S
O1655      C1656   1.266   1_455  A
C1656      O1657   1.254       .  A
O1658      C1659   1.271       .  A
C1659      C1684   1.462       .  S
O1660     Cr1669   2.025       .  S
O1660      C1668   1.275       .  A
O1661     Cr1669   1.951       .  S
O1661      C1662   1.246       .  A
C1662      O1663   1.266       .  A
C1662      C1681   1.462       .  S
O1663     Cr1670   2.039       .  S
O1664     Cr1670   1.965       .  S
O1664      C1665   1.259       .  A
C1665      O1666   1.282       .  A
C1665      C2049   1.463       .  S
O1666     Cr1671   2.042       .  S
O1667     Cr1671   1.931       .  S
O1667      C1668   1.249       .  A
Cr1669     O1672   1.767       .  S
Cr1670     O1672   1.776       .  S
Cr1671     O1672   1.768       .  S
O1673     Cr1691   1.932       .  S
O1673      C2209   1.246   1_545  A
O1674     Cr1691   2.043       .  S
O1674      C1675   1.279       .  A
C1675      O1676   1.255   1_545  A
C1675      C2171   1.463   1_545  S
O1676     Cr1692   1.942   1_565  S
O1677     Cr1956   2.037       .  S
O1677      C1678   1.266       .  A
C1678      O1679   1.254       .  A
C1678      C1700   1.468       .  S
O1679     Cr1957   1.964       .  S
O1680     Cr1957   2.042       .  S
O1680      C1681   1.271       .  A
C1681      O1937   1.246       .  A
O1682     Cr1691   2.026       .  S
O1682      C1690   1.275       .  A
O1683     Cr1691   1.951       .  S
O1683      C1684   1.246       .  A
C1684      O1685   1.266       .  A
O1685     Cr1692   2.039       .  S
O1686     Cr1692   1.965       .  S
O1686      C1687   1.259       .  A
C1687      O1688   1.282       .  A
O1688     Cr1693   2.043       .  S
O1689     Cr1693   1.931       .  S
O1689      C1690   1.249       .  A
C1690      C1712   1.455       .  S
Cr1691     O1694   1.767       .  S
Cr1692     O2205   2.037       .  S
Cr1692     O1694   1.776       .  S
Cr1693     O2207   1.964   1_545  S
Cr1693     O2208   2.042   1_545  S
Cr1693     O1694   1.768       .  S
O1695     Cr1713   1.933       .  S
O1695      C1703   1.246       .  A
O1696     Cr1713   2.043   1_556  S
O1696      C1697   1.280       .  A
C1697      O1698   1.255       .  A
O1698     Cr1714   1.942   1_556  S
O1699     Cr1714   2.037       .  S
O1699      C1700   1.266       .  A
C1700      O1701   1.254       .  A
O1701     Cr1715   1.964       .  S
O1702     Cr1715   2.042       .  S
O1702      C1703   1.271       .  A
O1704     Cr1713   2.026       .  S
O1704      C1712   1.275       .  A
O1705     Cr1713   1.951   1_556  S
O1705      C1706   1.246       .  A
C1706      O1707   1.266       .  A
O1707     Cr1714   2.039   1_556  S
O1708     Cr1714   1.965       .  S
O1708      C1709   1.259       .  A
C1709      O1710   1.282       .  A
O1710     Cr1715   2.042       .  S
O1711     Cr1715   1.931       .  S
O1711      C1712   1.249       .  A
Cr1713     O1716   1.767       .  S
Cr1714     O1716   1.776       .  S
Cr1715     O1716   1.768       .  S
O1717     Cr1735   1.933       .  S
O1717      C1725   1.246       .  A
O1718     Cr1735   2.042       .  S
O1718      C1719   1.279       .  A
C1719      O1720   1.255       .  A
O1720     Cr1736   1.942       .  S
O1721     Cr1736   2.037       .  S
O1721      C1722   1.266       .  A
C1722      O1723   1.254       .  A
C1722      C1744   1.468       .  S
O1723     Cr1737   1.964       .  S
O1724     Cr1737   2.042       .  S
O1724      C1725   1.271       .  A
O1726     Cr1735   2.026       .  S
O1726      C1734   1.275       .  A
O1727     Cr1735   1.951       .  S
O1727      C1728   1.246       .  A
C1728      O1729   1.266       .  A
O1729     Cr1736   2.039       .  S
O1730     Cr1736   1.965       .  S
O1730      C1731   1.259       .  A
C1731      O1732   1.282       .  A
C1731      C2335   1.463   1_545  S
O1732     Cr1737   2.042       .  S
O1733     Cr1737   1.931       .  S
O1733      C1734   1.249       .  A
C1734      C1756   1.454       .  S
Cr1735     O1738   1.767       .  S
Cr1736     O1738   1.776       .  S
Cr1737     O1738   1.768       .  S
O1739     Cr1757   1.932       .  S
O1740     Cr1757   2.042       .  S
O1740      C1741   1.279       .  A
C1741      O1742   1.255       .  A
O1742     Cr1758   1.942       .  S
O1743      C1744   1.266       .  A
C1744      O1745   1.254       .  A
O1746      C1747   1.271       .  A
C1747      C1816   1.462       .  S
O1748     Cr1757   2.025       .  S
O1748      C1756   1.275       .  A
O1749     Cr1757   1.951       .  S
O1749      C1750   1.246       .  A
C1750      O1751   1.266       .  A
C1750      C1813   1.463       .  S
O1751     Cr1758   2.039       .  S
O1752     Cr1758   1.965       .  S
O1752      C1753   1.259       .  A
C1753      O1754   1.282       .  A
C1753      C2137   1.463   1_545  S
O1754     Cr1759   2.043       .  S
O1755     Cr1759   1.931       .  S
O1755      C1756   1.249       .  A
Cr1757     O1760   1.767       .  S
Cr1758     O1760   1.776       .  S
Cr1759     O1760   1.768       .  S
O1761     Cr1779   1.933       .  S
O1762     Cr1779   2.043       .  S
O1762      C1763   1.280       .  A
C1763      O1764   1.255       .  A
O1764     Cr1780   1.942       .  S
O1765      C1766   1.266       .  A
C1766      O1767   1.254       .  A
C1766      C1788   1.468       .  S
O1768      C1769   1.270       .  A
C1769      C1838   1.462       .  S
O1770     Cr1779   2.026       .  S
O1770      C1778   1.275       .  A
O1771     Cr1779   1.951       .  S
O1771      C1772   1.246       .  A
C1772      O1773   1.266       .  A
C1772      C1835   1.462       .  S
O1773     Cr1780   2.039       .  S
O1774     Cr1780   1.965       .  S
O1774      C1775   1.259       .  A
C1775      O1776   1.282       .  A
O1776     Cr1781   2.042       .  S
O1777     Cr1781   1.931       .  S
O1777      C1778   1.249       .  A
C1778      C1800   1.455       .  S
Cr1779     O1782   1.767       .  S
Cr1780     O1782   1.776       .  S
Cr1781     O1782   1.768       .  S
O1783     Cr1801   1.932       .  S
O1783      C2319   1.246   1_545  A
O1784     Cr1801   2.043       .  S
O1784      C1785   1.280       .  A
C1785      O1786   1.255   1_545  A
C1785      C2193   1.463   1_545  S
O1786     Cr1802   1.942   1_565  S
O1787     Cr2066   2.037       .  S
O1787      C1788   1.266       .  A
C1788      O1789   1.254       .  A
O1789     Cr2067   1.964       .  S
O1790     Cr2067   2.042       .  S
O1790      C1791   1.271       .  A
C1791      O2047   1.246       .  A
O1792     Cr1801   2.026       .  S
O1792      C1800   1.275       .  A
O1793     Cr1801   1.950       .  S
O1793      C1794   1.246       .  A
C1794      O1795   1.266       .  A
O1795     Cr1802   2.039       .  S
O1796     Cr1802   1.965       .  S
O1796      C1797   1.259       .  A
C1797      O1798   1.282       .  A
C1797      C1829   1.463       .  S
O1798     Cr1803   2.042       .  S
O1799     Cr1803   1.931       .  S
O1799      C1800   1.249       .  A
Cr1801     O1804   1.767       .  S
Cr1802     O2315   2.037       .  S
Cr1802     O1804   1.776       .  S
Cr1803     O2317   1.964   1_545  S
Cr1803     O2318   2.042   1_545  S
Cr1803     O1804   1.767       .  S
O1805     Cr1823   1.932       .  S
O1805      C2077   1.246       .  A
O1806     Cr1823   2.043       .  S
O1806      C1807   1.280       .  A
C1807      O1808   1.255       .  A
C1807      C1995   1.463       .  S
O1808     Cr1824   1.942       .  S
O1809     Cr2352   2.037       .  S
O1809      C1810   1.266   1_565  A
C1810      O1811   1.254       .  A
C1810      C1832   1.468       .  S
O1811     Cr2353   1.964   1_545  S
O1812     Cr2353   2.043   1_545  S
O1812      C1813   1.271       .  A
C1813      O2333   1.246   1_545  A
O1814     Cr1823   2.026       .  S
O1814      C1822   1.275       .  A
O1815     Cr1823   1.951       .  S
O1815      C1816   1.246       .  A
C1816      O1817   1.266       .  A
O1817     Cr1824   2.039       .  S
O1818     Cr1824   1.965       .  S
O1818      C1819   1.259       .  A
C1819      O1820   1.282       .  A
O1820     Cr1825   2.043       .  S
O1821     Cr1825   1.931       .  S
O1821      C1822   1.249       .  A
C1822      C1844   1.455       .  S
Cr1823     O1826   1.767       .  S
Cr1824     O2073   2.037       .  S
Cr1824     O1826   1.776       .  S
Cr1825     O2075   1.964       .  S
Cr1825     O2076   2.043       .  S
Cr1825     O1826   1.768       .  S
O1827     Cr1845   1.933       .  S
O1827      C1835   1.246       .  A
O1828     Cr1845   2.043       .  S
O1828      C1829   1.280       .  A
C1829      O1830   1.255       .  A
O1830     Cr1846   1.942       .  S
O1831     Cr1846   2.037       .  S
O1831      C1832   1.266       .  A
C1832      O1833   1.254       .  A
O1833     Cr1847   1.964       .  S
O1834     Cr1847   2.042       .  S
O1834      C1835   1.270       .  A
O1836     Cr1845   2.026       .  S
O1836      C1844   1.275       .  A
O1837     Cr1845   1.951       .  S
O1837      C1838   1.246       .  A
C1838      O1839   1.266       .  A
O1839     Cr1846   2.039       .  S
O1840     Cr1846   1.965       .  S
O1840      C1841   1.259       .  A
C1841      O1842   1.282       .  A
O1842     Cr1847   2.042       .  S
O1843     Cr1847   1.931       .  S
O1843      C1844   1.249       .  A
Cr1845     O1848   1.767       .  S
Cr1846     O1848   1.776       .  S
Cr1847     O1848   1.768       .  S
O1849     Cr1867   1.933       .  S
O1850     Cr1867   2.043       .  S
O1850      C1851   1.280       .  A
C1851      O1852   1.255       .  A
O1852     Cr1868   1.942   1_554  S
O1853      C1854   1.266   1_455  A
C1854      O1855   1.254       .  A
C1854      C1876   1.468       .  S
O1856      C1857   1.271       .  A
C1857      C1970   1.462       .  S
O1858     Cr1867   2.026   1_556  S
O1858      C1866   1.275       .  A
O1859     Cr1867   1.951       .  S
O1859      C1860   1.246       .  A
C1860      O1861   1.266       .  A
C1860      C1967   1.462       .  S
O1861     Cr1868   2.039   1_554  S
O1862     Cr1868   1.965       .  S
O1862      C1863   1.259       .  A
C1863      O1864   1.282       .  A
C1863      C1983   1.463       .  S
O1864     Cr1869   2.042       .  S
O1865     Cr1869   1.931       .  S
O1865      C1866   1.249       .  A
C1866      C1888   1.455       .  S
Cr1867     O1870   1.767   1_554  S
Cr1868     O1870   1.776       .  S
Cr1869     O1870   1.768       .  S
O1871     Cr1889   1.932       .  S
O1871      C2143   1.246       .  A
O1872     Cr1889   2.043       .  S
O1872      C1873   1.280       .  A
C1873      O1874   1.255       .  A
C1873      C2281   1.463       .  S
O1874     Cr1890   1.942       .  S
O1875      C1876   1.266       .  A
C1876      O1877   1.254       .  A
O1878      C1879   1.271       .  A
C1879      C1992   1.463       .  S
O1880     Cr1889   2.026       .  S
O1880      C1888   1.275       .  A
O1881     Cr1889   1.950       .  S
O1881      C1882   1.246       .  A
C1882      O1883   1.266       .  A
C1882      C1989   1.462       .  S
O1883     Cr1890   2.039       .  S
O1884     Cr1890   1.965       .  S
O1884      C1885   1.259       .  A
C1885      O1886   1.282       .  A
C1885      C1961   1.463       .  S
O1886     Cr1891   2.042       .  S
O1887     Cr1891   1.931       .  S
O1887      C1888   1.249       .  A
Cr1889     O1892   1.767       .  S
Cr1890     O2139   2.037       .  S
Cr1890     O1892   1.776       .  S
Cr1891     O2141   1.964       .  S
Cr1891     O2142   2.042       .  S
Cr1891     O1892   1.768       .  S
O1893     Cr1911   1.933       .  S
O1893      C1901   1.246       .  A
O1894     Cr1911   2.042       .  S
O1894      C1895   1.279       .  A
C1895      O1896   1.255       .  A
C1895      C2039   1.463       .  S
O1896     Cr1912   1.942       .  S
O1897     Cr1912   2.037       .  S
O1897      C1898   1.266       .  A
C1898      O1899   1.254       .  A
C1898      C1920   1.468       .  S
O1899     Cr1913   1.964       .  S
O1900     Cr1913   2.042       .  S
O1900      C1901   1.271       .  A
C1901      C2058   1.462       .  S
O1902     Cr1911   2.026       .  S
O1902      C1910   1.275       .  A
O1903     Cr1911   1.951       .  S
O1903      C1904   1.246       .  A
C1904      O1905   1.266       .  A
C1904      C2055   1.462       .  S
O1905     Cr1912   2.039       .  S
O1906     Cr1912   1.965       .  S
O1906      C1907   1.259       .  A
C1907      O1908   1.282       .  A
C1907      C2203   1.463       .  S
O1908     Cr1913   2.042       .  S
O1909     Cr1913   1.931       .  S
O1909      C1910   1.249       .  A
C1910      C1932   1.454       .  S
Cr1911     O1914   1.767       .  S
Cr1912     O1914   1.776       .  S
Cr1913     O1914   1.768       .  S
O1915     Cr1933   1.932       .  S
O1916     Cr1933   2.042       .  S
O1916      C1917   1.279       .  A
C1917      O1918   1.255       .  A
O1918     Cr1934   1.942       .  S
O1919      C1920   1.266   1_455  A
C1920      O1921   1.254       .  A
O1922      C1923   1.271       .  A
C1923      C1948   1.462       .  S
O1924     Cr1933   2.025       .  S
O1924      C1932   1.275       .  A
O1925     Cr1933   1.951       .  S
O1925      C1926   1.246       .  A
C1926      O1927   1.266       .  A
C1926      C1945   1.462       .  S
O1927     Cr1934   2.039       .  S
O1928     Cr1934   1.965       .  S
O1928      C1929   1.259       .  A
C1929      O1930   1.282       .  A
C1929      C2313   1.463       .  S
O1930     Cr1935   2.042       .  S
O1931     Cr1935   1.931       .  S
O1931      C1932   1.249       .  A
Cr1933     O1936   1.767       .  S
Cr1934     O1936   1.776       .  S
Cr1935     O1936   1.768       .  S
O1937     Cr1955   1.932       .  S
O1938     Cr1955   2.043       .  S
O1938      C1939   1.279       .  A
C1939      O1940   1.255       .  A
O1940     Cr1956   1.942       .  S
O1941     Cr2220   2.037       .  S
O1941      C1942   1.266       .  A
C1942      O1943   1.254       .  A
C1942      C1964   1.468       .  S
O1943     Cr2221   1.964       .  S
O1944     Cr2221   2.042       .  S
O1944      C1945   1.271       .  A
C1945      O2201   1.246       .  A
O1946     Cr1955   2.026       .  S
O1946      C1954   1.275       .  A
O1947     Cr1955   1.951       .  S
O1947      C1948   1.246       .  A
C1948      O1949   1.266       .  A
O1949     Cr1956   2.039       .  S
O1950     Cr1956   1.965       .  S
O1950      C1951   1.259       .  A
C1951      O1952   1.282       .  A
O1952     Cr1957   2.043       .  S
O1953     Cr1957   1.931       .  S
O1953      C1954   1.249       .  A
C1954      C1976   1.455       .  S
Cr1955     O1958   1.767       .  S
Cr1956     O1958   1.776       .  S
Cr1957     O1958   1.768       .  S
O1959     Cr1977   1.933       .  S
O1959      C1967   1.246       .  A
O1960     Cr1977   2.043   1_556  S
O1960      C1961   1.280       .  A
C1961      O1962   1.255       .  A
O1962     Cr1978   1.942   1_556  S
O1963     Cr1978   2.037       .  S
O1963      C1964   1.266       .  A
C1964      O1965   1.254       .  A
O1965     Cr1979   1.964       .  S
O1966     Cr1979   2.042       .  S
O1966      C1967   1.271       .  A
O1968     Cr1977   2.026       .  S
O1968      C1976   1.275       .  A
O1969     Cr1977   1.951   1_556  S
O1969      C1970   1.246       .  A
C1970      O1971   1.266       .  A
O1971     Cr1978   2.039   1_556  S
O1972     Cr1978   1.965       .  S
O1972      C1973   1.259       .  A
C1973      O1974   1.282       .  A
O1974     Cr1979   2.042       .  S
O1975     Cr1979   1.931       .  S
O1975      C1976   1.249       .  A
Cr1977     O1980   1.767       .  S
Cr1978     O1980   1.776       .  S
Cr1979     O1980   1.768       .  S
O1981     Cr1999   1.933       .  S
O1981      C1989   1.246       .  A
O1982     Cr1999   2.042       .  S
O1982      C1983   1.279       .  A
C1983      O1984   1.255       .  A
O1984     Cr2000   1.942       .  S
O1985     Cr2000   2.037       .  S
O1985      C1986   1.266       .  A
C1986      O1987   1.254       .  A
C1986      C2008   1.468       .  S
O1987     Cr2001   1.964       .  S
O1988     Cr2001   2.042       .  S
O1988      C1989   1.271       .  A
O1990     Cr1999   2.026       .  S
O1990      C1998   1.275       .  A
O1991     Cr1999   1.951       .  S
O1991      C1992   1.246       .  A
C1992      O1993   1.266       .  A
O1993     Cr2000   2.039       .  S
O1994     Cr2000   1.965       .  S
O1994      C1995   1.259       .  A
C1995      O1996   1.282       .  A
O1996     Cr2001   2.042       .  S
O1997     Cr2001   1.931       .  S
O1997      C1998   1.249       .  A
C1998      C2020   1.454       .  S
Cr1999     O2002   1.767       .  S
Cr2000     O2002   1.776       .  S
Cr2001     O2002   1.768       .  S
O2003     Cr2021   1.932       .  S
O2004     Cr2021   2.042       .  S
O2004      C2005   1.279       .  A
C2005      O2006   1.255       .  A
O2006     Cr2022   1.942       .  S
O2007      C2008   1.266       .  A
C2008      O2009   1.254       .  A
O2010      C2011   1.271       .  A
C2011      C2080   1.462       .  S
O2012     Cr2021   2.025       .  S
O2012      C2020   1.275       .  A
O2013     Cr2021   1.951       .  S
O2013      C2014   1.246       .  A
C2014      O2015   1.266       .  A
C2014      C2077   1.463       .  S
O2015     Cr2022   2.039       .  S
O2016     Cr2022   1.965       .  S
O2016      C2017   1.259       .  A
C2017      O2018   1.282       .  A
O2018     Cr2023   2.043       .  S
O2019     Cr2023   1.931       .  S
O2019      C2020   1.249       .  A
Cr2021     O2024   1.767       .  S
Cr2022     O2024   1.776       .  S
Cr2023     O2024   1.768       .  S
O2025     Cr2043   1.933       .  S
O2026     Cr2043   2.043       .  S
O2026      C2027   1.280       .  A
C2027      O2028   1.255       .  A
O2028     Cr2044   1.942       .  S
O2029      C2030   1.266       .  A
C2030      O2031   1.254       .  A
C2030      C2052   1.468       .  S
O2032      C2033   1.270       .  A
C2033      C2102   1.462       .  S
O2034     Cr2043   2.026       .  S
O2034      C2042   1.275       .  A
O2035     Cr2043   1.951       .  S
O2035      C2036   1.246       .  A
C2036      O2037   1.266       .  A
C2036      C2099   1.462       .  S
O2037     Cr2044   2.039       .  S
O2038     Cr2044   1.965       .  S
O2038      C2039   1.259       .  A
C2039      O2040   1.282       .  A
O2040     Cr2045   2.042       .  S
O2041     Cr2045   1.931       .  S
O2041      C2042   1.249       .  A
C2042      C2064   1.455       .  S
Cr2043     O2046   1.767       .  S
Cr2044     O2046   1.776       .  S
Cr2045     O2046   1.768       .  S
O2047     Cr2065   1.932       .  S
O2048     Cr2065   2.043       .  S
O2048      C2049   1.280       .  A
C2049      O2050   1.255       .  A
O2050     Cr2066   1.942       .  S
O2051     Cr2330   2.037       .  S
O2051      C2052   1.266       .  A
C2052      O2053   1.254       .  A
O2053     Cr2331   1.964       .  S
O2054     Cr2331   2.042       .  S
O2054      C2055   1.271       .  A
C2055      O2311   1.246       .  A
O2056     Cr2065   2.026       .  S
O2056      C2064   1.275       .  A
O2057     Cr2065   1.950       .  S
O2057      C2058   1.246       .  A
C2058      O2059   1.266       .  A
O2059     Cr2066   2.039       .  S
O2060     Cr2066   1.965       .  S
O2060      C2061   1.259       .  A
C2061      O2062   1.282       .  A
C2061      C2093   1.463       .  S
O2062     Cr2067   2.042       .  S
O2063     Cr2067   1.931       .  S
O2063      C2064   1.249       .  A
Cr2065     O2068   1.767       .  S
Cr2066     O2068   1.776       .  S
Cr2067     O2068   1.767       .  S
O2069     Cr2087   1.932       .  S
O2069      C2341   1.246       .  A
O2070     Cr2087   2.043       .  S
O2070      C2071   1.280       .  A
C2071      O2072   1.255       .  A
C2071      C2259   1.463       .  S
O2072     Cr2088   1.942       .  S
O2073      C2074   1.266       .  A
C2074      O2075   1.254       .  A
C2074      C2096   1.468       .  S
O2076      C2077   1.271       .  A
O2078     Cr2087   2.026       .  S
O2078      C2086   1.275       .  A
O2079     Cr2087   1.951       .  S
O2079      C2080   1.246       .  A
C2080      O2081   1.266       .  A
O2081     Cr2088   2.039       .  S
O2082     Cr2088   1.965       .  S
O2082      C2083   1.259       .  A
C2083      O2084   1.282       .  A
O2084     Cr2089   2.043       .  S
O2085     Cr2089   1.931       .  S
O2085      C2086   1.249       .  A
C2086      C2108   1.455       .  S
Cr2087     O2090   1.767       .  S
Cr2088     O2337   2.037       .  S
Cr2088     O2090   1.776       .  S
Cr2089     O2339   1.964       .  S
Cr2089     O2340   2.043       .  S
Cr2089     O2090   1.768       .  S
O2091     Cr2109   1.933       .  S
O2091      C2099   1.246       .  A
O2092     Cr2109   2.043       .  S
O2092      C2093   1.280       .  A
C2093      O2094   1.255       .  A
O2094     Cr2110   1.942       .  S
O2095     Cr2110   2.037       .  S
O2095      C2096   1.266       .  A
C2096      O2097   1.254       .  A
O2097     Cr2111   1.964       .  S
O2098     Cr2111   2.042       .  S
O2098      C2099   1.270       .  A
O2100     Cr2109   2.026       .  S
O2100      C2108   1.275       .  A
O2101     Cr2109   1.951       .  S
O2101      C2102   1.246       .  A
C2102      O2103   1.266       .  A
O2103     Cr2110   2.039       .  S
O2104     Cr2110   1.965       .  S
O2104      C2105   1.259       .  A
C2105      O2106   1.282       .  A
O2106     Cr2111   2.042       .  S
O2107     Cr2111   1.931       .  S
O2107      C2108   1.249       .  A
Cr2109     O2112   1.767       .  S
Cr2110     O2112   1.776       .  S
Cr2111     O2112   1.768       .  S
O2113     Cr2131   1.933       .  S
O2114     Cr2131   2.043       .  S
O2114      C2115   1.280       .  A
C2115      O2116   1.255       .  A
O2116     Cr2132   1.942   1_554  S
O2117      C2118   1.266   1_455  A
C2118      O2119   1.254       .  A
C2118      C2140   1.468       .  S
O2120      C2121   1.271       .  A
C2121      C2234   1.462       .  S
O2122     Cr2131   2.026   1_556  S
O2122      C2130   1.275       .  A
O2123     Cr2131   1.951       .  S
O2123      C2124   1.246       .  A
C2124      O2125   1.266       .  A
C2124      C2231   1.462       .  S
O2125     Cr2132   2.039   1_554  S
O2126     Cr2132   1.965       .  S
O2126      C2127   1.259       .  A
C2127      O2128   1.282       .  A
C2127      C2247   1.463       .  S
O2128     Cr2133   2.042       .  S
O2129     Cr2133   1.931       .  S
O2129      C2130   1.249       .  A
C2130      C2152   1.455       .  S
Cr2131     O2134   1.767   1_554  S
Cr2132     O2134   1.776       .  S
Cr2133     O2134   1.768       .  S
O2135     Cr2153   1.932       .  S
O2136     Cr2153   2.043       .  S
O2136      C2137   1.280       .  A
C2137      O2138   1.255       .  A
O2138     Cr2154   1.942       .  S
O2139      C2140   1.266       .  A
C2140      O2141   1.254       .  A
O2142      C2143   1.271       .  A
C2143      C2256   1.463       .  S
O2144     Cr2153   2.026       .  S
O2144      C2152   1.275       .  A
O2145     Cr2153   1.950       .  S
O2145      C2146   1.246       .  A
C2146      O2147   1.266       .  A
C2146      C2253   1.462       .  S
O2147     Cr2154   2.039       .  S
O2148     Cr2154   1.965       .  S
O2148      C2149   1.259       .  A
C2149      O2150   1.282       .  A
C2149      C2225   1.463       .  S
O2150     Cr2155   2.042       .  S
O2151     Cr2155   1.931       .  S
O2151      C2152   1.249       .  A
Cr2153     O2156   1.767       .  S
Cr2154     O2156   1.776       .  S
Cr2155     O2156   1.768       .  S
O2157     Cr2175   1.933       .  S
O2157      C2165   1.246       .  A
O2158     Cr2175   2.042       .  S
O2158      C2159   1.279       .  A
C2159      O2160   1.255       .  A
C2159      C2303   1.463       .  S
O2160     Cr2176   1.942       .  S
O2161     Cr2176   2.037       .  S
O2161      C2162   1.266       .  A
C2162      O2163   1.254       .  A
C2162      C2184   1.468       .  S
O2163     Cr2177   1.964       .  S
O2164     Cr2177   2.042       .  S
O2164      C2165   1.271       .  A
C2165      C2322   1.462       .  S
O2166     Cr2175   2.026       .  S
O2166      C2174   1.275       .  A
O2167     Cr2175   1.951       .  S
O2167      C2168   1.246       .  A
C2168      O2169   1.266       .  A
C2168      C2319   1.462       .  S
O2169     Cr2176   2.039       .  S
O2170     Cr2176   1.965       .  S
O2170      C2171   1.259       .  A
C2171      O2172   1.282       .  A
O2172     Cr2177   2.042       .  S
O2173     Cr2177   1.931       .  S
O2173      C2174   1.249       .  A
C2174      C2196   1.454       .  S
Cr2175     O2178   1.767       .  S
Cr2176     O2178   1.776       .  S
Cr2177     O2178   1.768       .  S
O2179     Cr2197   1.932       .  S
O2180     Cr2197   2.042       .  S
O2180      C2181   1.279       .  A
C2181      O2182   1.255       .  A
O2182     Cr2198   1.942       .  S
O2183      C2184   1.266   1_455  A
C2184      O2185   1.254       .  A
O2186      C2187   1.271       .  A
C2187      C2212   1.462       .  S
O2188     Cr2197   2.025       .  S
O2188      C2196   1.275       .  A
O2189     Cr2197   1.951       .  S
O2189      C2190   1.246       .  A
C2190      O2191   1.266       .  A
C2190      C2209   1.462       .  S
O2191     Cr2198   2.039       .  S
O2192     Cr2198   1.965       .  S
O2192      C2193   1.259       .  A
C2193      O2194   1.282       .  A
O2194     Cr2199   2.042       .  S
O2195     Cr2199   1.931       .  S
O2195      C2196   1.249       .  A
Cr2197     O2200   1.767       .  S
Cr2198     O2200   1.776       .  S
Cr2199     O2200   1.768       .  S
O2201     Cr2219   1.932       .  S
O2202     Cr2219   2.043       .  S
O2202      C2203   1.279       .  A
C2203      O2204   1.255       .  A
O2204     Cr2220   1.942       .  S
O2205      C2206   1.266   1_545  A
C2206      O2207   1.254       .  A
C2206      C2228   1.468       .  S
O2208      C2209   1.271       .  A
O2210     Cr2219   2.026       .  S
O2210      C2218   1.275       .  A
O2211     Cr2219   1.951       .  S
O2211      C2212   1.246       .  A
C2212      O2213   1.266       .  A
O2213     Cr2220   2.039       .  S
O2214     Cr2220   1.965       .  S
O2214      C2215   1.259       .  A
C2215      O2216   1.282       .  A
O2216     Cr2221   2.043       .  S
O2217     Cr2221   1.931       .  S
O2217      C2218   1.249       .  A
C2218      C2240   1.455       .  S
Cr2219     O2222   1.767       .  S
Cr2220     O2222   1.776       .  S
Cr2221     O2222   1.768       .  S
O2223     Cr2241   1.933       .  S
O2223      C2231   1.246       .  A
O2224     Cr2241   2.043   1_556  S
O2224      C2225   1.280       .  A
C2225      O2226   1.255       .  A
O2226     Cr2242   1.942   1_556  S
O2227     Cr2242   2.037       .  S
O2227      C2228   1.266       .  A
C2228      O2229   1.254       .  A
O2229     Cr2243   1.964       .  S
O2230     Cr2243   2.042       .  S
O2230      C2231   1.271       .  A
O2232     Cr2241   2.026       .  S
O2232      C2240   1.275       .  A
O2233     Cr2241   1.951   1_556  S
O2233      C2234   1.246       .  A
C2234      O2235   1.266       .  A
O2235     Cr2242   2.039   1_556  S
O2236     Cr2242   1.965       .  S
O2236      C2237   1.259       .  A
C2237      O2238   1.282       .  A
O2238     Cr2243   2.042       .  S
O2239     Cr2243   1.931       .  S
O2239      C2240   1.249       .  A
Cr2241     O2244   1.767       .  S
Cr2242     O2244   1.776       .  S
Cr2243     O2244   1.768       .  S
O2245     Cr2263   1.933       .  S
O2245      C2253   1.246       .  A
O2246     Cr2263   2.042       .  S
O2246      C2247   1.279       .  A
C2247      O2248   1.255       .  A
O2248     Cr2264   1.942       .  S
O2249     Cr2264   2.037       .  S
O2249      C2250   1.266       .  A
C2250      O2251   1.254       .  A
C2250      C2272   1.468       .  S
O2251     Cr2265   1.964       .  S
O2252     Cr2265   2.042       .  S
O2252      C2253   1.271       .  A
O2254     Cr2263   2.026       .  S
O2254      C2262   1.275       .  A
O2255     Cr2263   1.951       .  S
O2255      C2256   1.246       .  A
C2256      O2257   1.266       .  A
O2257     Cr2264   2.039       .  S
O2258     Cr2264   1.965       .  S
O2258      C2259   1.259       .  A
C2259      O2260   1.282       .  A
O2260     Cr2265   2.042       .  S
O2261     Cr2265   1.931       .  S
O2261      C2262   1.249       .  A
C2262      C2284   1.454       .  S
Cr2263     O2266   1.767       .  S
Cr2264     O2266   1.776       .  S
Cr2265     O2266   1.768       .  S
O2267     Cr2285   1.932       .  S
O2268     Cr2285   2.042       .  S
O2268      C2269   1.279       .  A
C2269      O2270   1.255       .  A
O2270     Cr2286   1.942       .  S
O2271      C2272   1.266       .  A
C2272      O2273   1.254       .  A
O2274      C2275   1.271       .  A
C2275      C2344   1.462       .  S
O2276     Cr2285   2.025       .  S
O2276      C2284   1.275       .  A
O2277     Cr2285   1.951       .  S
O2277      C2278   1.246       .  A
C2278      O2279   1.266       .  A
C2278      C2341   1.463       .  S
O2279     Cr2286   2.039       .  S
O2280     Cr2286   1.965       .  S
O2280      C2281   1.259       .  A
C2281      O2282   1.282       .  A
O2282     Cr2287   2.043       .  S
O2283     Cr2287   1.931       .  S
O2283      C2284   1.249       .  A
Cr2285     O2288   1.767       .  S
Cr2286     O2288   1.776       .  S
Cr2287     O2288   1.768       .  S
O2289     Cr2307   1.933       .  S
O2290     Cr2307   2.043       .  S
O2290      C2291   1.280       .  A
C2291      O2292   1.255       .  A
O2292     Cr2308   1.942       .  S
O2293      C2294   1.266       .  A
C2294      O2295   1.254       .  A
C2294      C2316   1.468       .  S
O2296      C2297   1.270       .  A
C2297      C2366   1.462       .  S
O2298     Cr2307   2.026       .  S
O2298      C2306   1.275       .  A
O2299     Cr2307   1.951       .  S
O2299      C2300   1.246       .  A
C2300      O2301   1.266       .  A
C2300      C2363   1.462       .  S
O2301     Cr2308   2.039       .  S
O2302     Cr2308   1.965       .  S
O2302      C2303   1.259       .  A
C2303      O2304   1.282       .  A
O2304     Cr2309   2.042       .  S
O2305     Cr2309   1.931       .  S
O2305      C2306   1.249       .  A
C2306      C2328   1.455       .  S
Cr2307     O2310   1.767       .  S
Cr2308     O2310   1.776       .  S
Cr2309     O2310   1.768       .  S
O2311     Cr2329   1.932       .  S
O2312     Cr2329   2.043       .  S
O2312      C2313   1.280       .  A
C2313      O2314   1.255       .  A
O2314     Cr2330   1.942       .  S
O2315      C2316   1.266   1_545  A
C2316      O2317   1.254       .  A
O2318      C2319   1.271       .  A
O2320     Cr2329   2.026       .  S
O2320      C2328   1.275       .  A
O2321     Cr2329   1.950       .  S
O2321      C2322   1.246       .  A
C2322      O2323   1.266       .  A
O2323     Cr2330   2.039       .  S
O2324     Cr2330   1.965       .  S
O2324      C2325   1.259       .  A
C2325      O2326   1.282       .  A
C2325      C2357   1.463       .  S
O2326     Cr2331   2.042       .  S
O2327     Cr2331   1.931       .  S
O2327      C2328   1.249       .  A
Cr2329     O2332   1.767       .  S
Cr2330     O2332   1.776       .  S
Cr2331     O2332   1.767       .  S
O2333     Cr2351   1.932       .  S
O2334     Cr2351   2.043       .  S
O2334      C2335   1.280       .  A
C2335      O2336   1.255       .  A
O2336     Cr2352   1.942       .  S
O2337      C2338   1.266       .  A
C2338      O2339   1.254       .  A
C2338      C2360   1.468       .  S
O2340      C2341   1.271       .  A
O2342     Cr2351   2.026       .  S
O2342      C2350   1.275       .  A
O2343     Cr2351   1.951       .  S
O2343      C2344   1.246       .  A
C2344      O2345   1.266       .  A
O2345     Cr2352   2.039       .  S
O2346     Cr2352   1.965       .  S
O2346      C2347   1.259       .  A
C2347      O2348   1.282       .  A
O2348     Cr2353   2.043       .  S
O2349     Cr2353   1.931       .  S
O2349      C2350   1.249       .  A
C2350      C2372   1.455       .  S
Cr2351     O2354   1.767       .  S
Cr2352     O2354   1.776       .  S
Cr2353     O2354   1.768       .  S
O2355     Cr2373   1.933       .  S
O2355      C2363   1.246       .  A
O2356     Cr2373   2.043       .  S
O2356      C2357   1.280       .  A
C2357      O2358   1.255       .  A
O2358     Cr2374   1.942       .  S
O2359     Cr2374   2.037       .  S
O2359      C2360   1.266       .  A
C2360      O2361   1.254       .  A
O2361     Cr2375   1.964       .  S
O2362     Cr2375   2.042       .  S
O2362      C2363   1.270       .  A
O2364     Cr2373   2.026       .  S
O2364      C2372   1.275       .  A
O2365     Cr2373   1.951       .  S
O2365      C2366   1.246       .  A
C2366      O2367   1.266       .  A
O2367     Cr2374   2.039       .  S
O2368     Cr2374   1.965       .  S
O2368      C2369   1.259       .  A
C2369      O2370   1.282       .  A
O2370     Cr2375   2.042       .  S
O2371     Cr2375   1.931       .  S
O2371      C2372   1.249       .  A
Cr2373     O2376   1.767       .  S
Cr2374     O2376   1.776       .  S
Cr2375     O2376   1.768       .  S
