geometry optimzed in LAMMPS
_audit_creation_date              2020-12-01 
_audit_creation_method            'lammps2cif' 
_symmetry_space_group_name_H-M    'P1' 
_symmetry_Int_Tables_number       1 
_symmetry_cell_setting            triclinic 
loop_ 
_symmetry_equiv_pos_as_xyz 
  x,y,z 
_cell_length_a                    33.49161171 
_cell_length_b                    33.49471721300341 
_cell_length_c                    64.81141155185253 
_cell_angle_alpha                 89.98724205489667 
_cell_angle_beta                  89.85356409676396 
_cell_angle_gamma                 120.05383968691623 
loop_ 
_atom_site_label 
_atom_site_type_symbol 
_atom_site_fract_x 
_atom_site_fract_y 
_atom_site_fract_z 
_atom_site_charge 
O1          O  0.69600680  0.84548513  0.33082299    -0.81000
O2          O  0.72708309  0.82870877  0.42302111    -0.65700
O3          O  0.68736814  0.79831898  0.36726622    -1.12300
C4          C  0.57067871  0.83017412  0.38884777     1.05900
O5          O  0.65620839  0.78139976  0.43431085    -0.78900
O6          O  0.58450639  0.73929558  0.40747144    -0.66500
Ni7        Ni  0.73013046  0.82174635  0.34494492     1.34900
C8          C  0.57481150  0.72579194  0.38890184     0.84600
O9          O  0.76010321  0.80359400  0.39148316    -0.79500
O10         O  0.76834039  0.80043128  0.35721842    -0.89700
C11         C  0.69980402  0.80284845  0.43703274     0.84200
O12         O  0.76946250  0.88205908  0.35545120    -0.67900
O13         O  0.57684123  0.81704708  0.40649975    -0.87200
C14         C  0.77388268  0.90134594  0.37280316     0.85000
C15         C  0.78041649  0.79906310  0.37574525     1.06600
H16         H  0.67385400  0.86125925  0.39917571     0.38400
O17         O  0.66091531  0.82848068  0.39720355    -1.09900
O18         O  0.59385645  0.75204630  0.37349555    -0.66500
Ni19       Ni  0.64049999  0.81532893  0.36924660     1.26300
O20         O  0.75110125  0.87981399  0.38879462    -0.66800
O21         O  0.59457954  0.83320865  0.37286752    -0.79000
C22         C  0.65350406  0.82276813  0.32630301     0.84400
O23         O  0.62380800  0.80316409  0.34053922    -0.66200
Ni24       Ni  0.61805533  0.79973256  0.41911007     1.27400
Ni25       Ni  0.70987487  0.81534514  0.39473454     1.26100
H26         H  0.67256098  0.76510775  0.36646295     0.38900
O27         O  0.84075285  0.68395832  0.66844724    -0.81000
O28         O  0.82338041  0.72073588  0.57677804    -0.65700
O29         O  0.79353926  0.67825653  0.63224477    -1.12300
C30         C  0.82454476  0.56184417  0.60880719     1.05900
O31         O  0.77768232  0.65072929  0.56460142    -0.78900
O32         O  0.73622311  0.57709380  0.59006778    -0.66500
Ni33       Ni  0.81827335  0.71997036  0.65483796     1.34900
C34         C  0.72050197  0.56739751  0.60833462     0.84600
O35         O  0.79604463  0.74997417  0.60885894    -0.79500
O36         O  0.79771986  0.75945876  0.64321503    -0.89700
C37         C  0.79747044  0.69444024  0.56265953     0.84200
O38         O  0.87875023  0.75922001  0.64413428    -0.67900
O39         O  0.81428664  0.57061463  0.59101573    -0.87200
C40         C  0.89696483  0.76558158  0.62635066     0.85000
C41         C  0.79319080  0.77050503  0.62486051     1.06600
H42         H  0.85699884  0.66683835  0.60018793     0.38400
O43         O  0.82403246  0.65341511  0.60178607    -1.09900
O44         O  0.74519790  0.58592231  0.62423021    -0.66500
Ni45       Ni  0.80896006  0.63058535  0.62946777     1.26300
O46         O  0.87442872  0.74415581  0.61037175    -0.66800
O47         O  0.82520482  0.58347543  0.62521716    -0.79000
C48         C  0.81667048  0.64118948  0.67250609     0.84400
O49         O  0.79549146  0.61240252  0.65811573    -0.66200
Ni50       Ni  0.79696327  0.61246228  0.57910429     1.27400
Ni51       Ni  0.81001068  0.70167097  0.60488301     1.26100
H52         H  0.76041266  0.66407347  0.63335573     0.38900
O53         O  0.16419838  0.84233846  0.32853773    -0.81000
O54         O  0.18370095  0.90164694  0.42119519    -0.65700
O55         O  0.21100197  0.88584194  0.36530473    -1.12300
C56         C  0.18427850  0.74110771  0.38939816     1.05900
O57         O  0.22815673  0.87597784  0.43361859    -0.78900
O58         O  0.27244238  0.84917647  0.40721460    -0.66500
Ni59       Ni  0.18418380  0.90022583  0.34256859     1.34900
C60         C  0.28662158  0.85289111  0.38875654     0.84600
O61         O  0.20928155  0.95611045  0.38827019    -0.79500
O62         O  0.20149543  0.95974475  0.35401306    -0.89700
C63         C  0.20749647  0.89892703  0.43579758     0.84200
O64         O  0.12368566  0.87525559  0.35361904    -0.67900
O65         O  0.19740462  0.76154875  0.40675760    -0.87200
C66         C  0.10690254  0.86673046  0.37171711     0.85000
C67         C  0.20864199  0.97724994  0.37205133     1.06600
H68         H  0.14941432  0.81250893  0.39862025     0.38400
O69         O  0.18221234  0.83217887  0.39651840    -1.09900
O70         O  0.26006518  0.84276102  0.37326518    -0.66500
Ni71       Ni  0.19596598  0.82316180  0.36876539     1.26300
O72         O  0.13109001  0.87201524  0.38773475    -0.66800
O73         O  0.17971629  0.76035647  0.37331315    -0.79000
C74         C  0.18710074  0.82193897  0.32569589     0.84400
O75         O  0.20867559  0.81648937  0.34046181    -0.66200
Ni76       Ni  0.21182761  0.81986494  0.41872403     1.27400
Ni77       Ni  0.19581543  0.89429280  0.39285574     1.26100
H78         H  0.24402805  0.90496891  0.36374413     0.38900
O79         O  0.32241510  0.15086207  0.67409148    -0.81000
O80         O  0.28349100  0.08964624  0.58028427    -0.65700
O81         O  0.32444111  0.10908416  0.63641859    -1.12300
C82         C  0.43864313  0.25619737  0.61058939     1.05900
O83         O  0.35388372  0.11791526  0.56781362    -0.78900
O84         O  0.42812706  0.15545212  0.59312480    -0.66500
Ni85       Ni  0.28022289  0.09891218  0.65756288     1.34900
C86         C  0.43705087  0.14812122  0.61130332     0.84600
O87         O  0.25620245  0.03569498  0.61333852    -0.79500
O88         O  0.23231395  0.04403291  0.64441020    -0.89700
C89         C  0.31034239  0.09301134  0.56574895     0.84200
O90         O  0.25938963  0.13680118  0.64518511    -0.67900
O91         O  0.42868354  0.23705244  0.59288325    -0.87200
C92         C  0.24594392  0.13544729  0.62679251     0.85000
C93         C  0.22720117  0.02068022  0.62808513     1.06600
H94         H  0.33381527  0.17985321  0.60303729     0.38400
O95         O  0.34853549  0.16155424  0.60472012    -1.09900
O96         O  0.41680369  0.15198301  0.62722353    -0.66500
Ni97       Ni  0.37235984  0.17177233  0.63227355     1.26300
O98         O  0.25656662  0.11717320  0.61216668    -0.66800
O99         O  0.41908374  0.23495618  0.62726263    -0.79000
C100        C  0.36606762  0.17271668  0.67580183     0.84400
O101        O  0.39245375  0.17930005  0.66049285    -0.66200
Ni102      Ni  0.38950421  0.17656823  0.58180403     1.27400
Ni103      Ni  0.30223456  0.09853052  0.60853666     1.26100
H104        H  0.33773250  0.08987209  0.63929762     0.38900
O105        O  0.16806392  0.31841470  0.32980750    -0.81000
O106        O  0.10533720  0.27721644  0.42058594    -0.65700
O107        O  0.12207525  0.32095746  0.36522929    -1.12300
C108        C  0.26800886  0.43767190  0.38987444     1.05900
O109        O  0.13070367  0.34719024  0.43316524    -0.78900
O110        O  0.16550348  0.42228475  0.40836771    -0.66500
Ni111      Ni  0.10846840  0.28065221  0.34238429     1.34900
C112        C  0.15847074  0.43150201  0.39019894     0.84600
O113        O  0.05101556  0.24823377  0.38756032    -0.79500
O114        O  0.04785926  0.23946372  0.35311020    -0.89700
C115        C  0.10561273  0.30344992  0.43476341     0.84200
O116        O  0.13036034  0.24261310  0.35335564    -0.67900
O117        O  0.24933524  0.42730361  0.40777621    -0.87200
C118        C  0.13917228  0.23441112  0.37135096     0.85000
C119        C  0.02973643  0.22796334  0.37105659     1.06600
H120        H  0.19494869  0.33166693  0.39772580     0.38400
O121        O  0.17547682  0.34514244  0.39623950    -1.09900
O122        O  0.16372732  0.41254010  0.37420588    -0.66500
Ni123      Ni  0.18443700  0.36924051  0.36878855     1.26300
O124        O  0.13532754  0.25419086  0.38739492    -0.66800
O125        O  0.24693198  0.41689983  0.37343196    -0.79000
C126        C  0.18589088  0.36118951  0.32604837     0.84400
O127        O  0.19069564  0.38890550  0.34046812    -0.66200
Ni128      Ni  0.18923117  0.38543479  0.41918924     1.27400
Ni129      Ni  0.11317261  0.29672380  0.39247466     1.26100
H130        H  0.10269809  0.33454934  0.36376507     0.38900
O131        O  0.85080955  0.15684132  0.66895247    -0.81000
O132        O  0.90793658  0.17658549  0.57711553    -0.65700
O133        O  0.89572206  0.20465798  0.63322794    -1.12300
C134        C  0.74792372  0.17454110  0.61080285     1.05900
O135        O  0.88235720  0.22207307  0.56588023    -0.78900
O136        O  0.84748606  0.26214909  0.59102810    -0.66500
Ni137      Ni  0.90875965  0.17617365  0.65559387     1.34900
C138        C  0.85459656  0.27833617  0.60921233     0.84600
O139        O  0.96445688  0.19972149  0.60974044    -0.79500
O140        O  0.96742451  0.19245747  0.64407606    -0.89700
C141        C  0.90479538  0.20105840  0.56289828     0.84200
O142        O  0.88321920  0.11583601  0.64449255    -0.67900
O143        O  0.76527092  0.18226397  0.59263819    -0.87200
C144        C  0.87339572  0.09921058  0.62643374     0.85000
C145        C  0.98475118  0.19766365  0.62608521     1.06600
H146        H  0.82027820  0.14285815  0.60177555     0.38400
O147        O  0.84027622  0.17582440  0.60303770    -1.09900
O148        O  0.85277232  0.25513317  0.62512320    -0.66500
Ni149      Ni  0.83324521  0.19132212  0.63070099     1.26300
O150        O  0.87885804  0.12364552  0.61050344    -0.66800
O151        O  0.77015282  0.17595747  0.62704654    -0.79000
C152        C  0.83597094  0.18384131  0.67350773     0.84400
O153        O  0.82961385  0.20604262  0.65923630    -0.66200
Ni154      Ni  0.82469034  0.20141230  0.58043405     1.27400
Ni155      Ni  0.90257066  0.18860670  0.60565421     1.26100
H156        H  0.91564425  0.23759294  0.63472389     0.38900
O157        O  0.15911294  0.30681252  0.17206131    -0.81000
O158        O  0.17028006  0.26294470  0.07955505    -0.65700
O159        O  0.20179323  0.30581776  0.13490305    -1.12300
C160        C  0.17646074  0.42516117  0.10979508     1.05900
O161        O  0.22140647  0.33223567  0.06783756    -0.78900
O162        O  0.26349785  0.40919191  0.09190067    -0.66500
Ni163      Ni  0.17334592  0.26502234  0.15772707     1.34900
C164        C  0.27950025  0.41815234  0.11011418     0.84600
O165        O  0.19387536  0.23082624  0.11179161    -0.79500
O166        O  0.18491446  0.21895749  0.14589563    -0.89700
C167        C  0.19815937  0.28856074  0.06572478     0.84200
O168        O  0.11195006  0.23427175  0.14753348    -0.67900
O169        O  0.18508916  0.41477395  0.09196619    -0.87200
C170        C  0.09444714  0.22707593  0.12965918     0.85000
C171        C  0.19153961  0.20794012  0.12787523     1.06600
H172        H  0.14165207  0.32119347  0.10265254     0.38400
O173        O  0.17434013  0.33271943  0.10410402    -1.09900
O174        O  0.25511390  0.39808518  0.12595016    -0.66500
Ni175      Ni  0.19066188  0.35631182  0.13140503     1.26300
O176        O  0.11886742  0.24300313  0.11337125    -0.66800
O177        O  0.17774775  0.40540748  0.12649846    -0.79000
C178        C  0.18525961  0.34987741  0.17470780     0.84400
O179        O  0.20589679  0.37631622  0.15953681    -0.66200
Ni180      Ni  0.20267480  0.37227760  0.08106005     1.27400
Ni181      Ni  0.18410122  0.28185248  0.10761325     1.26100
H182        H  0.23464140  0.31785762  0.13611668     0.38900
O183        O  0.30961654  0.16025969  0.82682154    -0.81000
O184        O  0.27029696  0.17459471  0.92116451    -0.65700
O185        O  0.31114374  0.20240629  0.86501854    -1.12300
C186        C  0.42561687  0.16889954  0.88908931     1.05900
O187        O  0.34126984  0.22229143  0.93160201    -0.78900
O188        O  0.41690447  0.25863861  0.90718779    -0.66500
Ni189      Ni  0.26925535  0.17472417  0.84257027     1.34900
C190        C  0.42495732  0.27488303  0.88900562     0.84600
O191        O  0.23976288  0.20072620  0.88898647    -0.79500
O192        O  0.22407739  0.18647620  0.85530237    -0.89700
C193        C  0.29798275  0.20060540  0.93495771     0.84200
O194        O  0.23897858  0.11369317  0.85320390    -0.67900
O195        O  0.41567640  0.17692771  0.90711019    -0.87200
C196        C  0.22893456  0.09741224  0.87136377     0.85000
C197        C  0.21512775  0.19579460  0.87322628     1.06600
H198        H  0.32237547  0.13947345  0.89712863     0.38400
O199        O  0.33601939  0.17247134  0.89566021    -1.09900
O200        O  0.40329770  0.25140899  0.87331703    -0.66500
Ni201      Ni  0.35920495  0.18768274  0.86822782     1.26300
O202        O  0.24485750  0.12215451  0.88750687    -0.66800
O203        O  0.40627304  0.17180776  0.87263240    -0.79000
C204        C  0.35330106  0.18242052  0.82497913     0.84400
O205        O  0.37933530  0.20212460  0.84023796    -0.66200
Ni206      Ni  0.37699267  0.19877460  0.91831017     1.27400
Ni207      Ni  0.28806702  0.18675299  0.89271412     1.26100
H208        H  0.32477337  0.23539197  0.86347446     0.38900
O209        O  0.14369985  0.81878975  0.17475667    -0.81000
O210        O  0.08449042  0.80253916  0.08021856    -0.65700
O211        O  0.10329289  0.78008487  0.13633497    -1.12300
C212        C  0.24984719  0.81295345  0.10892896     1.05900
O213        O  0.10845645  0.75588985  0.06904490    -0.78900
O214        O  0.15098701  0.72214214  0.09257933    -0.66500
Ni215      Ni  0.09539309  0.81548899  0.15748703     1.34900
C216        C  0.14239187  0.70549929  0.11069202     0.84600
O217        O  0.03101842  0.77937262  0.11361036    -0.79500
O218        O  0.04359646  0.81485429  0.14402309    -0.89700
C219        C  0.08535245  0.77621087  0.06637630     0.84200
O220        O  0.13831416  0.87302954  0.14522991    -0.67900
O221        O  0.23068355  0.80493700  0.09121632    -0.87200
C222        C  0.13634729  0.88625597  0.12710377     0.85000
C223        C  0.01871949  0.79647720  0.12813880     1.06600
H224        H  0.17438239  0.84019465  0.10271040     0.38400
O225        O  0.15516775  0.80721833  0.10439696    -1.09900
O226        O  0.14408828  0.72878762  0.12653436    -0.66500
Ni227      Ni  0.16558554  0.79324024  0.13165222     1.26300
O228        O  0.11497773  0.85803849  0.11251166    -0.66800
O229        O  0.22828668  0.80855860  0.12587719    -0.79000
C230        C  0.16618334  0.79752388  0.17553298     0.84400
O231        O  0.17382222  0.78004155  0.15966849    -0.66200
Ni232      Ni  0.16891976  0.78122936  0.08125201     1.27400
Ni233      Ni  0.09303779  0.79289801  0.10854671     1.26100
H234        H  0.08326406  0.74762341  0.13925006     0.38900
O235        O  0.84398918  0.67769456  0.82832136    -0.81000
O236        O  0.89712587  0.71599787  0.92180367    -0.65700
O237        O  0.88512373  0.67492271  0.86582400    -1.12300
C238        C  0.73775623  0.55672576  0.88913882     1.05900
O239        O  0.87226976  0.64530667  0.93332861    -0.78900
O240        O  0.83935138  0.57109553  0.90820304    -0.66500
Ni241      Ni  0.89996071  0.71716406  0.84335004     1.34900
C242        C  0.84610881  0.56179724  0.88999214     0.84600
O243        O  0.95378428  0.74685153  0.88971350    -0.79500
O244        O  0.95794050  0.76089271  0.85567393    -0.89700
C245        C  0.89468674  0.68879277  0.93602491     0.84200
O246        O  0.87148138  0.74991046  0.85400810    -0.67900
O247        O  0.75594140  0.56620600  0.90705374    -0.87200
C248        C  0.86233026  0.75753061  0.87212073     0.85000
C249        C  0.97503553  0.77016360  0.87378841     1.06600
H250        H  0.80957262  0.66180157  0.89771625     0.38400
O251        O  0.82945517  0.64876842  0.89628233    -1.09900
O252        O  0.84221676  0.58199697  0.87412294    -0.66500
Ni253      Ni  0.82240414  0.62603294  0.86867033     1.26300
O254        O  0.86905036  0.73979421  0.88818782    -0.66800
O255        O  0.75928995  0.57814352  0.87276965    -0.79000
C256        C  0.82549234  0.63454051  0.82534555     0.84400
O257        O  0.81828514  0.60713012  0.84028005    -0.66200
Ni258      Ni  0.81496665  0.60753214  0.91893282     1.27400
Ni259      Ni  0.89170748  0.69775099  0.89344561     1.26100
H260        H  0.90478143  0.66161854  0.86443341     0.38900
O261        O  0.67881183  0.84737543  0.17135146    -0.81000
O262        O  0.71604806  0.89327891  0.07832453    -0.65700
O263        O  0.67222966  0.88386869  0.13354364    -1.12300
C264        C  0.55813619  0.73366233  0.11231984     1.05900
O265        O  0.64555967  0.86585157  0.06593549    -0.78900
O266        O  0.57203343  0.83551193  0.09140178    -0.66500
Ni267      Ni  0.71360805  0.90431846  0.15637506     1.34900
C268        C  0.56068439  0.84046540  0.10951264     0.84600
O269        O  0.74544902  0.95195655  0.10953574    -0.79500
O270        O  0.75262440  0.96354897  0.14377818    -0.89700
C271        C  0.68919186  0.89050965  0.06389401     0.84200
O272        O  0.75356202  0.88269158  0.14707933    -0.67900
O273        O  0.56615435  0.75159762  0.09429945    -0.87200
C274        C  0.75988835  0.86835730  0.12991020     0.85000
C275        C  0.76507942  0.97694842  0.12526134     1.06600
H276        H  0.66286479  0.80720573  0.10292995     0.38400
O277        O  0.64895522  0.82636980  0.10406008    -1.09900
O278        O  0.57921306  0.83542687  0.12567457    -0.66500
Ni279      Ni  0.62605695  0.81972079  0.13162571     1.26300
O280        O  0.73897750  0.86792656  0.11343418    -0.66800
O281        O  0.58080643  0.75540835  0.12834453    -0.79000
C282        C  0.63558618  0.82450874  0.17458071     0.84400
O283        O  0.60715933  0.81572095  0.15998954    -0.66200
Ni284      Ni  0.60772658  0.80973486  0.08140185     1.27400
Ni285      Ni  0.69670418  0.88927124  0.10639099     1.26100
H286        H  0.65696493  0.90186349  0.13383218     0.38900
O287        O  0.82873371  0.14008720  0.82881733    -0.81000
O288        O  0.80960859  0.08947941  0.92195773    -0.65700
O289        O  0.78131053  0.09922848  0.86579625    -1.12300
C290        C  0.80846058  0.24644890  0.88686960     1.05900
O291        O  0.76360653  0.11441274  0.93323692    -0.78900
O292        O  0.72116691  0.14295273  0.90663071    -0.66500
Ni293      Ni  0.80811346  0.08297255  0.84368350     1.34900
C294        C  0.70644880  0.13724194  0.88823612     0.84600
O295        O  0.78449157  0.03127169  0.89037699    -0.79500
O296        O  0.79004388  0.02418582  0.85618649    -0.89700
C297        C  0.78398332  0.09131901  0.93592768     0.84200
O298        O  0.86854817  0.10778952  0.85469439    -0.67900
O299        O  0.79768017  0.22831649  0.90483210    -0.87200
C300        C  0.88562497  0.11919125  0.87264002     0.85000
C301        C  0.78407462  0.00839086  0.87456525     1.06600
H302        H  0.84291027  0.17584282  0.89746930     0.38400
O303        O  0.81005928  0.15578667  0.89578730    -1.09900
O304        O  0.73174881  0.14288809  0.87258001    -0.66500
Ni305      Ni  0.79574910  0.16209174  0.86785899     1.26300
O306        O  0.86184921  0.11632443  0.88850319    -0.66800
O307        O  0.81133005  0.22534157  0.87102916    -0.79000
C308        C  0.80597118  0.16033134  0.82518336     0.84400
O309        O  0.78293958  0.16585008  0.83931401    -0.66200
Ni310      Ni  0.78175428  0.17043465  0.91775677     1.27400
Ni311      Ni  0.79707851  0.09357353  0.89353657     1.26100
H312        H  0.74828311  0.07975536  0.86449495     0.38900
C313        C  0.76586308  0.98590967  0.02580694    -0.27700
C314        C  0.73628050  0.97476166  0.00879628     0.01900
C315        C  0.69295814  0.93417390  0.00943969     0.29900
C316        C  0.67909388  0.90639388  0.02716435    -0.19500
C317        C  0.70773561  0.91830312  0.04462557    -0.28900
C318        C  0.75198298  0.95811819  0.04361585     0.44000
C319        C  0.75004724  0.00630748  0.99070265     0.05200
O320        O  0.66440363  0.92091267  0.99258381    -0.57500
H321        H  0.64532479  0.87562200  0.02729592     0.18100
O322        O  0.78092474  0.97174531  0.06029951    -0.64200
H323        H  0.79933736  0.01705630  0.02551296     0.16600
C324        C  0.72446944  0.02756627  0.98520749     0.28800
C325        C  0.73684727  0.05604191  0.96774263    -0.25100
C326        C  0.77442352  0.06359816  0.95521820    -0.24300
C327        C  0.80094772  0.04340208  0.96116893     0.40300
C328        C  0.78866327  0.01508276  0.97877025    -0.26800
O329        O  0.68811076  0.02175512  0.99722870    -0.58700
H330        H  0.71618310  0.07154040  0.96382499     0.15900
O331        O  0.83875124  0.05078909  0.94989141    -0.60100
H332        H  0.80896578  0.99934040  0.98295152     0.14300
H333        H  0.80247226  0.96014064  0.05757785     0.46200
H334        H  0.66024415  0.00457361  0.98854380     0.41600
H335        H  0.86527890  0.07780259  0.95641295     0.45000
H336        H  0.63721290  0.92325759  0.99689098     0.36500
C337        C  0.79803180  0.81752964  0.89177073    -0.27700
C338        C  0.81010998  0.85190600  0.87668307     0.01900
C339        C  0.84056796  0.85586516  0.86073336     0.29900
C340        C  0.85688515  0.82480527  0.85955462    -0.19500
C341        C  0.84414587  0.78970856  0.87430396    -0.28900
C342        C  0.81483071  0.78658297  0.89069009     0.44000
C343        C  0.79309917  0.88526456  0.87798172     0.05200
O344        O  0.85674902  0.89177964  0.84692411    -0.57500
H345        H  0.88050348  0.82889844  0.84719328     0.18100
O346        O  0.80215707  0.75336711  0.90563505    -0.64200
H347        H  0.77529049  0.81450531  0.90434146     0.16600
C348        C  0.77242764  0.89344588  0.86082520     0.28800
C349        C  0.76645887  0.93190839  0.86050035    -0.25100
C350        C  0.77964053  0.96221954  0.87738188    -0.24300
C351        C  0.79506302  0.95071183  0.89553002     0.40300
C352        C  0.80199982  0.91268722  0.89564730    -0.26800
O353        O  0.76025378  0.86541341  0.84382406    -0.58700
H354        H  0.75336488  0.93914879  0.84657605     0.15900
O355        O  0.80772131  0.97870569  0.91254802    -0.60100
H356        H  0.81719956  0.90644743  0.90911927     0.14300
H357        H  0.77261258  0.72701975  0.90079479     0.46200
H358        H  0.72667167  0.84376365  0.84535786     0.41600
H359        H  0.77917407  0.96697724  0.92091644     0.45000
H360        H  0.84370221  0.87752919  0.83336936     0.36500
C361        C  0.80757165  0.35741769  0.89717732    -0.27700
C362        C  0.83987771  0.38781530  0.88282993     0.01900
C363        C  0.86010915  0.37095088  0.86878495     0.29900
C364        C  0.84893621  0.32448829  0.86978090    -0.19500
C365        C  0.81766750  0.29447894  0.88468924    -0.28900
C366        C  0.79610790  0.31127133  0.89807701     0.44000
C367        C  0.85111718  0.43670626  0.88304368     0.05200
O368        O  0.89261285  0.40014342  0.85487631    -0.57500
H369        H  0.86577290  0.31232922  0.85929735     0.18100
O370        O  0.76357450  0.28285441  0.91216486    -0.64200
H371        H  0.79087868  0.36958123  0.90775693     0.16600
C372        C  0.84140308  0.45648617  0.86601132     0.28800
C373        C  0.84395901  0.49939833  0.86799626    -0.25100
C374        C  0.85495671  0.52279552  0.88703158    -0.24300
C375        C  0.86732176  0.50404322  0.90371687     0.40300
C376        C  0.86539538  0.46152453  0.90159485    -0.26800
O377        O  0.82611364  0.43275249  0.84781352    -0.58700
H378        H  0.83392069  0.51264099  0.85496537     0.15900
O379        O  0.87870188  0.52548534  0.92256132    -0.60100
H380        H  0.87293632  0.44671758  0.91485574     0.14300
H381        H  0.73397657  0.26798890  0.90452449     0.46200
H382        H  0.79251281  0.41176552  0.84979381     0.41600
H383        H  0.91274393  0.54535513  0.92226677     0.45000
H384        H  0.87763320  0.39075326  0.84117371     0.36500
C385        C  0.01048307  0.78266541  0.02354565    -0.27700
C386        C  0.00280128  0.74515092  0.01114702     0.01900
C387        C  0.02327321  0.71882145  0.01668339     0.29900
C388        C  0.05034666  0.72975192  0.03450226    -0.19500
C389        C  0.05731323  0.76663650  0.04728634    -0.28900
C390        C  0.03737060  0.79347588  0.04148200     0.44000
C391        C  0.97280534  0.73297494  0.99263793     0.05200
O392        O  0.01831089  0.68334616  0.00430855    -0.57500
H393        H  0.06558868  0.70882130  0.03836664     0.18100
O394        O  0.04377003  0.83030523  0.05318347    -0.64200
H395        H  0.99506759  0.80330851  0.01943613     0.16600
C396        C  0.93304706  0.68926499  0.99102975     0.28800
C397        C  0.90722587  0.67646514  0.97281596    -0.25100
C398        C  0.92009686  0.70665444  0.95583772    -0.24300
C399        C  0.95829739  0.75168462  0.95798254     0.40300
C400        C  0.98445102  0.76440160  0.97624219    -0.26800
O401        O  0.91864015  0.65924672  0.00743951    -0.58700
H402        H  0.87721716  0.64224483  0.97192048     0.15900
O403        O  0.97187672  0.78273286  0.94205046    -0.60100
H404        H  0.01469064  0.79842622  0.97737245     0.14300
H405        H  0.07164141  0.85728111  0.04736321     0.46200
H406        H  0.92090050  0.63224994  0.00276403     0.41600
H407        H  0.95649889  0.80098976  0.94469428     0.45000
H408        H  0.00097881  0.65489990  0.01269084     0.36500
C409        C  0.92316342  0.81772194  0.10938241    -0.27700
C410        C  0.89869864  0.81239180  0.12782879     0.01900
C411        C  0.91082885  0.79652888  0.14555773     0.29900
C412        C  0.94862002  0.78930806  0.14502027    -0.19500
C413        C  0.97463550  0.79694293  0.12691834    -0.28900
C414        C  0.96070160  0.80988752  0.10880546     0.44000
C415        C  0.86221376  0.82555921  0.12868443     0.05200
O416        O  0.88524899  0.78708969  0.16334488    -0.57500
H417        H  0.95820545  0.77846843  0.15900481     0.18100
O418        O  0.98552700  0.81836033  0.09089211    -0.64200
H419        H  0.91425367  0.82972637  0.09556547     0.16600
C420        C  0.86478829  0.85829200  0.14310921     0.28800
C421        C  0.83103681  0.87134983  0.14333310    -0.25100
C422        C  0.79421479  0.85254717  0.12928292    -0.24300
C423        C  0.79134560  0.81947873  0.11496112     0.40300
C424        C  0.82531637  0.80651651  0.11465056    -0.26800
O425        O  0.90178874  0.87986316  0.15619149    -0.58700
H426        H  0.83441048  0.89725130  0.15431458     0.15900
O427        O  0.75534917  0.79928270  0.10132705    -0.60100
H428        H  0.82266482  0.78121925  0.10349765     0.14300
H429        H  0.96999543  0.78886687  0.08317607     0.46200
H430        H  0.88882085  0.87142035  0.17034109     0.41600
H431        H  0.73130800  0.77132361  0.10849614     0.45000
H432        H  0.90675729  0.80796481  0.17401420     0.36500
C433        C  0.45026696  0.83405934  0.12827818    -0.27700
C434        C  0.43939400  0.85318799  0.11144239     0.01900
C435        C  0.47155437  0.87336717  0.09523824     0.29900
C436        C  0.51249935  0.87162515  0.09546232    -0.19500
C437        C  0.52208714  0.84986116  0.11167292    -0.28900
C438        C  0.49112298  0.83219801  0.12850069     0.44000
C439        C  0.39242502  0.84714425  0.11003835     0.05200
O440        O  0.46308048  0.89475544  0.07914624    -0.57500
H441        H  0.53609392  0.88598235  0.08252730     0.18100
O442        O  0.49819022  0.80920929  0.14430771    -0.64200
H443        H  0.42570473  0.81806299  0.14077206     0.16600
C444        C  0.36349555  0.82289636  0.09337116     0.28800
C445        C  0.31785961  0.81336784  0.09307567    -0.25100
C446        C  0.29949924  0.82671821  0.10945652    -0.24300
C447        C  0.32873824  0.85190696  0.12597261     0.40300
C448        C  0.37470088  0.86165450  0.12622453    -0.26800
O449        O  0.37883367  0.80649453  0.07766653    -0.58700
H450        H  0.29625042  0.79383008  0.08023195     0.15900
O451        O  0.31286714  0.86704025  0.14195946    -0.60100
H452        H  0.39648936  0.88022064  0.13918864     0.14300
H453        H  0.51310638  0.83244624  0.15538380     0.46200
H454        H  0.37292822  0.77586340  0.08243305     0.41600
H455        H  0.31668553  0.89691755  0.13721528     0.45000
H456        H  0.46095052  0.87670888  0.06664315     0.36500
C457        C  0.51871341  0.39737531  0.89993320    -0.27700
C458        C  0.54890316  0.40575770  0.88330228     0.01900
C459        C  0.53494961  0.37331706  0.86718902     0.29900
C460        C  0.49253875  0.33206994  0.86849695    -0.19500
C461        C  0.46380972  0.32234725  0.88585426    -0.28900
C462        C  0.47651875  0.35615726  0.90128314     0.44000
C463        C  0.59677755  0.44528800  0.88441810     0.05200
O464        O  0.56440544  0.37949409  0.85118177    -0.57500
H465        H  0.48369422  0.30628248  0.85658800     0.18100
O466        O  0.44892905  0.34841866  0.91822139    -0.64200
H467        H  0.52883063  0.42215819  0.91237749     0.16600
C468        C  0.61647396  0.47851049  0.86859622     0.28800
C469        C  0.66242942  0.51439539  0.87013951    -0.25100
C470        C  0.68919357  0.51832078  0.88755093    -0.24300
C471        C  0.66899821  0.48489529  0.90341081     0.40300
C472        C  0.62338822  0.44913818  0.90174563    -0.26800
O473        O  0.59103465  0.47661353  0.85169823    -0.58700
H474        H  0.67690224  0.53957902  0.85780817     0.15900
O475        O  0.69352200  0.48629494  0.92059101    -0.60100
H476        H  0.60888308  0.42368388  0.91398639     0.14300
H477        H  0.42595447  0.35709949  0.91381226     0.46200
H478        H  0.57170167  0.48963025  0.85638780     0.41600
H479        H  0.70872516  0.46836416  0.91687062     0.45000
H480        H  0.55114000  0.38647788  0.83897760     0.36500
C481        C  0.09238222  0.87316399  0.86194567    -0.27700
C482        C  0.09811923  0.90200441  0.87875237     0.01900
C483        C  0.06627142  0.88465789  0.89517257     0.29900
C484        C  0.02795853  0.84003464  0.89402270    -0.19500
C485        C  0.02052826  0.81231573  0.87654646    -0.28900
C486        C  0.05400067  0.82871850  0.86073997     0.44000
C487        C  0.13295716  0.95175947  0.87730482     0.05200
O488        O  0.06960287  0.91264906  0.91131399    -0.57500
H489        H  0.00220243  0.82852006  0.90613058     0.18100
O490        O  0.04832046  0.80252856  0.84355118    -0.64200
H491        H  0.11666740  0.88604715  0.84920387     0.16600
C492        C  0.16679294  0.97496395  0.89254937     0.28800
C493        C  0.19780604  0.02253572  0.89068136    -0.25100
C494        C  0.19602884  0.04731365  0.87352171    -0.24300
C495        C  0.16194786  0.02376532  0.85835365     0.40300
C496        C  0.13113404  0.97660811  0.86030019    -0.26800
O497        O  0.17011339  0.95151390  0.90918969    -0.58700
H498        H  0.22368974  0.03991435  0.90248596     0.15900
O499        O  0.15766262  0.04662942  0.84169627    -0.60100
H500        H  0.10493119  0.95942017  0.84859080     0.14300
H501        H  0.06796807  0.78857752  0.84591794     0.46200
H502        H  0.18713576  0.93634197  0.90405116     0.41600
H503        H  0.13877366  0.05990941  0.84669866     0.45000
H504        H  0.07988349  0.90156167  0.92324198     0.36500
C505        C  0.60545789  0.14617991  0.86798662    -0.27700
C506        C  0.57471893  0.12834499  0.88471089     0.01900
C507        C  0.58416090  0.10606276  0.90083583     0.29900
C508        C  0.62590838  0.10587466  0.90099644    -0.19500
C509        C  0.65849305  0.12723171  0.88512046    -0.28900
C510        C  0.64689234  0.14546390  0.86800568     0.44000
C511        C  0.53527226  0.13681613  0.88595381     0.05200
O512        O  0.55272137  0.08450646  0.91645932    -0.57500
H513        H  0.63363333  0.09065874  0.91404052     0.18100
O514        O  0.67757435  0.16667464  0.85214280    -0.64200
H515        H  0.59861121  0.16316341  0.85538972     0.16600
C516        C  0.52917159  0.15812506  0.90346772     0.28800
C517        C  0.49278275  0.16707939  0.90431142    -0.25100
C518        C  0.46258589  0.15682909  0.88756215    -0.24300
C519        C  0.46951158  0.13679636  0.86971728     0.40300
C520        C  0.50550775  0.12682075  0.86907206    -0.26800
O521        O  0.55963745  0.17203665  0.91960607    -0.58700
H522        H  0.48922272  0.18358035  0.91801227     0.15900
O523        O  0.44180098  0.12726439  0.85275102    -0.60100
H524        H  0.51029189  0.11134671  0.85529875     0.14300
H525        H  0.67022975  0.14195252  0.84190636     0.46200
H526        H  0.58524800  0.20292090  0.91558859     0.41600
H527        H  0.41761603  0.09441202  0.85425372     0.45000
H528        H  0.56849854  0.10049803  0.92936328     0.36500
C529        C  0.01082311  0.18253448  0.89072290    -0.27700
C530        C  0.03095705  0.16613964  0.87648329     0.01900
C531        C  0.00264199  0.13268680  0.86196090     0.29900
C532        C  0.95558302  0.11783408  0.86113510    -0.19500
C533        C  0.93545295  0.13521716  0.87482950    -0.28900
C534        C  0.96335986  0.16725935  0.89000030     0.44000
C535        C  0.08119582  0.18273900  0.87694591     0.05200
O536        O  0.02039279  0.11269050  0.84916647    -0.57500
H537        H  0.93459179  0.09202246  0.84980933     0.18100
O538        O  0.94488136  0.18430652  0.90397516    -0.64200
H539        H  0.03207022  0.20767863  0.90222106     0.16600
C540        C  0.10827603  0.20038248  0.85898218     0.28800
C541        C  0.15306011  0.20739629  0.85840130    -0.25100
C542        C  0.17215988  0.19796911  0.87572164    -0.24300
C543        C  0.14651989  0.18445163  0.89432111     0.40300
C544        C  0.10132849  0.17681583  0.89478053    -0.26800
O545        O  0.09045054  0.20872134  0.84154802    -0.58700
H546        H  0.17225688  0.21853880  0.84405117     0.15900
O547        O  0.16341409  0.17430813  0.91157047    -0.60100
H548        H  0.08102770  0.16354901  0.90875510     0.14300
H549        H  0.94578598  0.21112993  0.89702633     0.46200
H550        H  0.09438725  0.23983216  0.84357498     0.41600
H551        H  0.17949091  0.20359811  0.91941537     0.45000
H552        H  0.01849999  0.12292554  0.83502199     0.36500
C553        C  0.96771249  0.14556135  0.14282967    -0.27700
C554        C  0.94717768  0.13620240  0.12327788     0.01900
C555        C  0.97452758  0.15998478  0.10603095     0.29900
C556        C  0.02209880  0.19040656  0.10837778    -0.19500
C557        C  0.04328387  0.19787530  0.12782132    -0.28900
C558        C  0.01502558  0.17592568  0.14524368     0.44000
C559        C  0.89808113  0.09915807  0.12119313     0.05200
O560        O  0.95472763  0.15456588  0.08695170    -0.57500
H561        H  0.04247315  0.20767820  0.09482331     0.18100
O562        O  0.03309171  0.18331330  0.16476798    -0.64200
H563        H  0.94722405  0.12790376  0.15631322     0.16600
C564        C  0.88566258  0.06152887  0.10782391     0.28800
C565        C  0.84063971  0.02394480  0.10801523    -0.25100
C566        C  0.80763992  0.02193145  0.12203215    -0.24300
C567        C  0.81946430  0.06002556  0.13497718     0.40300
C568        C  0.86428126  0.09832697  0.13441326    -0.26800
O569        O  0.91807052  0.05935487  0.09564395    -0.58700
H570        H  0.83266576  0.99450736  0.09833552     0.15900
O571        O  0.78806020  0.05936338  0.14879296    -0.60100
H572        H  0.87316574  0.12676602  0.14488608     0.14300
H573        H  0.03932884  0.15774565  0.16732675     0.46200
H574        H  0.93298849  0.04675149  0.10468675     0.41600
H575        H  0.77444062  0.07612673  0.14184643     0.45000
H576        H  0.96925877  0.14135620  0.07799235     0.36500
C577        C  0.39988209  0.51738489  0.09856370    -0.27700
C578        C  0.40988533  0.54314178  0.11683428     0.01900
C579        C  0.38012115  0.52391351  0.13388611     0.29900
C580        C  0.33951920  0.48099994  0.13201403    -0.19500
C581        C  0.32760452  0.45676652  0.11317603    -0.28900
C582        C  0.35941617  0.47456741  0.09666034     0.44000
C583        C  0.44780766  0.59205648  0.11674148     0.05200
O584        O  0.38793772  0.54881039  0.15170956    -0.57500
H585        H  0.31572021  0.46842115  0.14493393     0.18100
O586        O  0.35016949  0.45174775  0.07817265    -0.64200
H587        H  0.42265819  0.53156237  0.08534894     0.16600
C588        C  0.48502409  0.60919394  0.13067715     0.28800
C589        C  0.52044769  0.65563397  0.12952749    -0.25100
C590        C  0.51964063  0.68528139  0.11435991    -0.24300
C591        C  0.48156590  0.66807668  0.10082147     0.40300
C592        C  0.44646366  0.62204700  0.10203639    -0.26800
O593        O  0.48748697  0.58068715  0.14517627    -0.58700
H594        H  0.54914499  0.66809818  0.14014895     0.15900
O595        O  0.47798280  0.69602267  0.08634706    -0.60100
H596        H  0.41772029  0.60965990  0.09142789     0.14300
H597        H  0.36706952  0.43448661  0.07863656     0.46200
H598        H  0.51041289  0.57288324  0.13970076     0.41600
H599        H  0.46533351  0.71302142  0.09390247     0.45000
H600        H  0.39820072  0.53379777  0.16192396     0.36500
C601        C  0.15037587  0.60309273  0.13005867    -0.27700
C602        C  0.13490403  0.57402761  0.11274156     0.01900
C603        C  0.11435039  0.58488065  0.09636405     0.29900
C604        C  0.11378086  0.62646905  0.09661628    -0.19500
C605        C  0.13290401  0.65747028  0.11316720    -0.28900
C606        C  0.14904699  0.64423748  0.13046815     0.44000
C607        C  0.14331881  0.53445075  0.11151592     0.05200
O608        O  0.09450771  0.55484580  0.08018462    -0.57500
H609        H  0.09985965  0.63529215  0.08343469     0.18100
O610        O  0.16729240  0.67296983  0.14711896    -0.64200
H611        H  0.16575975  0.59506021  0.14292325     0.16600
C612        C  0.16671666  0.52931658  0.09451003     0.28800
C613        C  0.17657390  0.49338708  0.09413559    -0.25100
C614        C  0.16466079  0.46247500  0.11079388    -0.24300
C615        C  0.14165443  0.46792260  0.12791870     0.40300
C616        C  0.13121866  0.50359197  0.12815504    -0.26800
O617        O  0.18162137  0.56016754  0.07844153    -0.58700
H618        H  0.19476861  0.49054203  0.08088057     0.15900
O619        O  0.12919057  0.43873846  0.14454869    -0.60100
H620        H  0.11365273  0.50724706  0.14145553     0.14300
H621        H  0.14098306  0.66353584  0.15673753     0.46200
H622        H  0.21277229  0.58507882  0.08249870     0.41600
H623        H  0.09771076  0.41321002  0.14136704     0.45000
H624        H  0.11176293  0.57181078  0.06765884     0.36500
C625        C  0.20636148  0.01604672  0.13358972    -0.27700
C626        C  0.18122342  0.03020335  0.12124071     0.01900
C627        C  0.14529869  0.99714711  0.10881244     0.29900
C628        C  0.13366900  0.95083250  0.10965483    -0.19500
C629        C  0.15623761  0.93620214  0.12330877    -0.28900
C630        C  0.19385989  0.96946388  0.13484934     0.44000
C631        C  0.18959745  0.07818807  0.12283650     0.05200
O632        O  0.11925395  0.00907814  0.09677968    -0.57500
H633        H  0.10458283  0.92581468  0.10068208     0.18100
O634        O  0.21758134  0.95666262  0.14796216    -0.64200
H635        H  0.23478113  0.04098703  0.14288567     0.16600
C636        C  0.19083369  0.09777400  0.14225052     0.28800
C637        C  0.19384546  0.14086603  0.14353867    -0.25100
C638        C  0.19471904  0.16524513  0.12569451    -0.24300
C639        C  0.19480547  0.14615241  0.10621497     0.40300
C640        C  0.19285861  0.10339773  0.10496673    -0.26800
O641        O  0.18712975  0.07428526  0.16015732    -0.58700
H642        H  0.19376681  0.15436655  0.15871381     0.15900
O643        O  0.19575416  0.16826273  0.08824550    -0.60100
H644        H  0.19265383  0.08931253  0.08989572     0.14300
H645        H  0.24288971  0.95789821  0.13950069     0.46200
H646        H  0.15354203  0.05368056  0.16235960     0.41600
H647        H  0.16302841  0.15443632  0.08401529     0.45000
H648        H  0.09445380  0.00666662  0.10600063     0.36500
C649        C  0.25657528  0.24372682  0.03036616    -0.27700
C650        C  0.23267490  0.23774323  0.01178802     0.01900
C651        C  0.19458915  0.24489202  0.01157963     0.29900
C652        C  0.18229781  0.25981766  0.02949125    -0.19500
C653        C  0.20746731  0.26752314  0.04775330    -0.28900
C654        C  0.24420287  0.25853159  0.04824072     0.44000
C655        C  0.24952545  0.22705522  0.99246711     0.05200
O656        O  0.17017800  0.23893962  0.99377616    -0.57500
H657        H  0.15395129  0.26667813  0.02896399     0.18100
O658        O  0.26850488  0.26459978  0.06609529    -0.64200
H659        H  0.28547838  0.23772471  0.03089765     0.16600
C660        C  0.29464803  0.25683867  0.98529622     0.28800
C661        C  0.30970274  0.24757008  0.96667953    -0.25100
C662        C  0.28046240  0.20857907  0.95478747    -0.24300
C663        C  0.23542751  0.17834561  0.96216096     0.40300
C664        C  0.22026442  0.18784764  0.98078672    -0.26800
O665        O  0.32353068  0.29645264  0.99586032    -0.58700
H666        H  0.34433373  0.27162927  0.96138806     0.15900
O667        O  0.20593902  0.13940217  0.95136434    -0.60100
H668        H  0.18554899  0.16441366  0.98617753     0.14300
H669        H  0.29314316  0.29747624  0.06599939     0.46200
H670        H  0.34531999  0.28963557  0.00326303     0.41600
H671        H  0.20927977  0.11426782  0.95768843     0.45000
H672        H  0.18780862  0.26834515  0.98607707     0.36500
C673        C  0.82555371  0.23117138  0.72571572    -0.27700
C674        C  0.81613319  0.19380658  0.73867049     0.01900
C675        C  0.81119507  0.15316665  0.72998873     0.29900
C676        C  0.81574971  0.15008252  0.70872773    -0.19500
C677        C  0.82560364  0.18731135  0.69555742    -0.28900
C678        C  0.83005817  0.22805177  0.70422353     0.44000
C679        C  0.81399576  0.19693770  0.76141259     0.05200
O680        O  0.80268780  0.11636286  0.74229504    -0.57500
H681        H  0.81245578  0.11850348  0.70256241     0.18100
O682        O  0.84167942  0.26586691  0.69208767    -0.64200
H683        H  0.83023919  0.26295595  0.73230230     0.16600
C684        C  0.85439830  0.21296641  0.77316732     0.28800
C685        C  0.85131889  0.20323621  0.79432868    -0.25100
C686        C  0.80825392  0.17855380  0.80416520    -0.24300
C687        C  0.76792261  0.16594599  0.79274846     0.40300
C688        C  0.77097117  0.17468234  0.77143198    -0.26800
O689        O  0.89680473  0.23414802  0.76372234    -0.58700
H690        H  0.88264637  0.21310826  0.80290273     0.15900
O691        O  0.72531039  0.14068005  0.80176608    -0.60100
H692        H  0.73959688  0.16140393  0.76247473     0.14300
H693        H  0.81193940  0.26390812  0.68860688     0.46200
H694        H  0.91094259  0.26723461  0.76737685     0.41600
H695        H  0.71568167  0.16344857  0.80526494     0.45000
H696        H  0.83327662  0.12350635  0.74766132     0.36500
C697        C  0.98797276  0.20553007  0.52092484    -0.27700
C698        C  0.98166144  0.23136201  0.50555145     0.01900
C699        C  0.94729710  0.24330378  0.50832641     0.29900
C700        C  0.92161070  0.23165291  0.52669003    -0.19500
C701        C  0.92962535  0.20820721  0.54277436    -0.28900
C702        C  0.96247015  0.19406585  0.53943279     0.44000
C703        C  0.01350895  0.24908703  0.48751022     0.05200
O704        O  0.93838380  0.26610702  0.49303428    -0.57500
H705        H  0.89588483  0.24198728  0.52844483     0.18100
O706        O  0.97076143  0.16994986  0.55425887    -0.64200
H707        H  0.01410506  0.19580128  0.51892890     0.16600
C708        C  0.04367615  0.29678652  0.48507016     0.28800
C709        C  0.07363461  0.31360309  0.46810879    -0.25100
C710        C  0.07442225  0.28359766  0.45309565    -0.24300
C711        C  0.04426760  0.23556549  0.45568273     0.40300
C712        C  0.01440830  0.21875834  0.47282605    -0.26800
O713        O  0.04407234  0.32744881  0.49921315    -0.58700
H714        H  0.09613183  0.35054794  0.46668548     0.15900
O715        O  0.04270278  0.20470622  0.44135258    -0.60100
H716        H  0.99138302  0.18194658  0.47449919     0.14300
H717        H  0.99938990  0.19314851  0.56119920     0.46200
H718        H  0.06376942  0.32765189  0.51065705     0.41600
H719        H  0.06353833  0.19411193  0.44672142     0.45000
H720        H  0.95052354  0.29798386  0.49820207     0.36500
C721        C  0.19610003  0.41630384  0.27364391    -0.27700
C722        C  0.20931191  0.39034156  0.26133770     0.01900
C723        C  0.22118347  0.36004036  0.27089199     0.29900
C724        C  0.21690175  0.35373187  0.29229649    -0.19500
C725        C  0.20066142  0.37723094  0.30457039    -0.28900
C726        C  0.19193133  0.41009584  0.29517691     0.44000
C727        C  0.20209457  0.38766354  0.23870924     0.05200
O728        O  0.23425878  0.33427207  0.25925278    -0.57500
H729        H  0.22395049  0.32843328  0.29919905     0.18100
O730        O  0.17591872  0.43363267  0.30662190    -0.64200
H731        H  0.18628698  0.43928625  0.26642338     0.16600
C732        C  0.15849536  0.35579978  0.23082609     0.28800
C733        C  0.15299043  0.34583441  0.20973797    -0.25100
C734        C  0.19033410  0.36816058  0.19599040    -0.24300
C735        C  0.23326866  0.40283022  0.20365686     0.40300
C736        C  0.23908116  0.41195839  0.22498416    -0.26800
O737        O  0.12170511  0.33177644  0.24386887    -0.58700
H738        H  0.11964901  0.31926182  0.20420347     0.15900
O739        O  0.27033169  0.42601852  0.19066728    -0.60100
H740        H  0.27283022  0.43661301  0.23088972     0.14300
H741        H  0.14180928  0.41453767  0.30605480     0.46200
H742        H  0.10834899  0.35206174  0.24591927     0.41600
H743        H  0.28638026  0.40790898  0.19073770     0.45000
H744        H  0.20573756  0.30407031  0.25733793     0.36500
C745        C  0.37412706  0.21557619  0.73025571    -0.27700
C746        C  0.40141242  0.19983773  0.73957038     0.01900
C747        C  0.42355692  0.18230600  0.72707018     0.29900
C748        C  0.41568187  0.17789778  0.70565528    -0.20700
C749        C  0.38502045  0.18993624  0.69662945    -0.28900
C750        C  0.36559779  0.21047178  0.70904112     0.44000
C751        C  0.39920112  0.19479086  0.76233079     0.05200
O752        O  0.45033962  0.16655279  0.73579681    -0.57500
H753        H  0.43055324  0.16164570  0.69640669     0.18100
O754        O  0.33551439  0.22265985  0.70080929    -0.64200
H755        H  0.35661722  0.22882293  0.73970870     0.16600
C756        C  0.41830001  0.23358081  0.77536786     0.28800
C757        C  0.40625006  0.22849641  0.79636779    -0.25100
C758        C  0.37357376  0.18525597  0.80436271    -0.24300
C759        C  0.35633079  0.14617076  0.79153799     0.40300
C760        C  0.36984568  0.15103271  0.77078244    -0.26800
O761        O  0.44722051  0.27673380  0.76752313    -0.58700
H762        H  0.41976729  0.25890658  0.80602929     0.15900
O763        O  0.32545305  0.10323691  0.79906274    -0.60100
H764        H  0.35463019  0.12093410  0.76088866     0.14300
H765        H  0.35519857  0.25470208  0.69577235     0.46200
H766        H  0.42737830  0.29045924  0.76511973     0.41600
H767        H  0.29481222  0.09696282  0.79415984     0.45000
H768        H  0.48166387  0.19400297  0.73667001     0.36500
C769        C  0.63711589  0.17596800  0.60105986    -0.27700
C770        C  0.60741145  0.14574739  0.61624950     0.01900
C771        C  0.62442374  0.12537921  0.63012114     0.29900
C772        C  0.67036447  0.13501810  0.62838778    -0.19500
C773        C  0.69970150  0.16475407  0.61289356    -0.28900
C774        C  0.68264309  0.18565238  0.59935160     0.44000
C775        C  0.55901939  0.13645732  0.61681911     0.05200
O776        O  0.59585709  0.09435438  0.64466202    -0.57500
H777        H  0.68276592  0.11853983  0.63891807     0.18100
O778        O  0.71037576  0.21626655  0.58448885    -0.64200
H779        H  0.62495954  0.19259641  0.59047687     0.16600
C780        C  0.54044021  0.14638113  0.63432821     0.28800
C781        C  0.49859206  0.14645418  0.63283682    -0.25100
C782        C  0.47502283  0.13749156  0.61390778    -0.24300
C783        C  0.49207163  0.12408325  0.59688415     0.40300
C784        C  0.53350801  0.12372645  0.59845843    -0.26800
O785        O  0.56425620  0.15907054  0.65257227    -0.58700
H786        H  0.48630550  0.15664030  0.64619020     0.15900
O787        O  0.46993175  0.11362590  0.57821436    -0.60100
H788        H  0.54699080  0.11553916  0.58488726     0.14300
H789        H  0.72777143  0.24633681  0.59166662     0.46200
H790        H  0.58610709  0.19265904  0.65126754     0.41600
H791        H  0.44768941  0.08002331  0.57878747     0.45000
H792        H  0.60796212  0.10943402  0.65817985     0.36500
C793        C  0.08581467  0.18073615  0.63925430    -0.27700
C794        C  0.10929098  0.19015352  0.62043599     0.01900
C795        C  0.09278503  0.20367720  0.60340980     0.29900
C796        C  0.05339357  0.20808667  0.60553673    -0.19500
C797        C  0.02943663  0.19824276  0.62444498    -0.28900
C798        C  0.04625287  0.18412696  0.64136759     0.44000
C799        C  0.14924571  0.18280659  0.61900268     0.05200
O800        O  0.11432033  0.21182406  0.58459218    -0.57500
H801        H  0.04120063  0.21850137  0.59229695     0.18100
O802        O  0.02359733  0.17188021  0.65998583    -0.64200
H803        H  0.09731831  0.16894497  0.65231684     0.16600
C804        C  0.18630259  0.20513379  0.63285328     0.28800
C805        C  0.21890208  0.19085362  0.63453126    -0.25100
C806        C  0.21521351  0.15430855  0.62250319    -0.24300
C807        C  0.17967321  0.13385219  0.60771637     0.40300
C808        C  0.14691429  0.14807134  0.60612527    -0.26800
O809        O  0.19032410  0.24044537  0.64506035    -0.58700
H810        H  0.24638149  0.20752656  0.64572933     0.15900
O811        O  0.17410986  0.09714968  0.59612202    -0.60100
H812        H  0.11808222  0.13002270  0.59568857     0.14300
H813        H  0.00290253  0.13796347  0.65925275     0.46200
H814        H  0.18070574  0.22702325  0.65907160     0.41600
H815        H  0.18589062  0.11000762  0.58219821     0.45000
H816        H  0.14129587  0.24343499  0.58553040     0.36500
C817        C  0.21601859  0.98656487  0.47631958    -0.27700
C818        C  0.23915676  0.97823378  0.49234353     0.01900
C819        C  0.24719353  0.94101201  0.49045736     0.29900
C820        C  0.23485156  0.91467416  0.47234831    -0.19500
C821        C  0.21436721  0.92456130  0.45563377    -0.28900
C822        C  0.20346272  0.96000069  0.45811833     0.44000
C823        C  0.25709054  0.00960168  0.51053628     0.05200
O824        O  0.26646681  0.92968998  0.50647098    -0.57500
H825        H  0.24230873  0.88677976  0.47131493     0.18100
O826        O  0.18256988  0.97051908  0.44258494    -0.64200
H827        H  0.20904583  0.01474954  0.47763739     0.16600
C828        C  0.30475672  0.03443956  0.51465698     0.28800
C829        C  0.32139226  0.06210047  0.53233203    -0.25100
C830        C  0.29122616  0.06547778  0.54643779    -0.24300
C831        C  0.24347643  0.04185920  0.54185360     0.40300
C832        C  0.22685080  0.01420462  0.52407972    -0.26800
O833        O  0.33548962  0.03284587  0.50109867    -0.58700
H834        H  0.35822113  0.08041118  0.53510840     0.15900
O835        O  0.21259582  0.04521086  0.55463108    -0.60100
H836        H  0.19012274  0.99569505  0.52103631     0.14300
H837        H  0.14899886  0.95072949  0.44514140     0.46200
H838        H  0.34985808  0.01754766  0.50868287     0.41600
H839        H  0.21110642  0.07236902  0.54955917     0.45000
H840        H  0.29662090  0.93500590  0.50126033     0.36500
C841        C  0.15571138  0.13245463  0.36016912    -0.27700
C842        C  0.18426898  0.13466391  0.37641373     0.01900
C843        C  0.19718118  0.16926245  0.39150303     0.29900
C844        C  0.18186162  0.20133512  0.38996443    -0.19500
C845        C  0.15391072  0.19954017  0.37341956    -0.28900
C846        C  0.14049493  0.16419638  0.35859174     0.44000
C847        C  0.19934722  0.09988681  0.37708573     0.05200
O848        O  0.22670843  0.17348050  0.40708771    -0.57500
H849        H  0.19277438  0.22827063  0.40145605     0.18100
O850        O  0.11223473  0.16006124  0.34245361    -0.64200
H851        H  0.14477439  0.10557261  0.34863443     0.16600
C852        C  0.18907280  0.07016047  0.39411308     0.28800
C853        C  0.19626358  0.03253349  0.39281913    -0.25100
C854        C  0.21240408  0.02298132  0.37447896    -0.24300
C855        C  0.22523700  0.05429946  0.35788100     0.40300
C856        C  0.21876364  0.09235100  0.35930400    -0.26800
O857        O  0.16880791  0.07544896  0.41151479    -0.58700
H858        H  0.18567344  0.00875772  0.40569319     0.15900
O859        O  0.24203208  0.04693524  0.33983361    -0.60100
H860        H  0.22703881  0.11501374  0.34608749     0.14300
H861        H  0.08043981  0.13912428  0.34752094     0.46200
H862        H  0.13512348  0.05625213  0.40916713     0.41600
H863        H  0.27577406  0.06138641  0.34195940     0.45000
H864        H  0.20838802  0.16638736  0.41999400     0.36500
C865        C  0.18065046  0.62832378  0.40154680    -0.27700
C866        C  0.15345961  0.59978045  0.38543838     0.01900
C867        C  0.13653034  0.61793546  0.37043553     0.29900
C868        C  0.14685588  0.66401700  0.37182190    -0.19500
C869        C  0.17407498  0.69259721  0.38803138    -0.28900
C870        C  0.19118194  0.67414877  0.40290452     0.44000
C871        C  0.14471854  0.55172695  0.38467717     0.05200
O872        O  0.10818220  0.59035534  0.35498956    -0.57500
H873        H  0.13297326  0.67716281  0.36030745     0.18100
O874        O  0.21866898  0.70057909  0.41880626    -0.64200
H875        H  0.19455918  0.61515547  0.41305155     0.16600
C876        C  0.15819405  0.53532682  0.36753301     0.28800
C877        C  0.15867705  0.49382845  0.36896067    -0.25100
C878        C  0.14689569  0.46858229  0.38751628    -0.24300
C879        C  0.13006022  0.48331616  0.40411038     0.40300
C880        C  0.12907453  0.52444642  0.40257448    -0.26800
O881        O  0.17423016  0.56110909  0.34984358    -0.58700
H882        H  0.17164399  0.48329270  0.35596762     0.15900
O883        O  0.11676575  0.45918779  0.42232542    -0.60100
H884        H  0.11818849  0.53632981  0.41584279     0.14300
H885        H  0.25073399  0.71393864  0.41360694     0.46200
H886        H  0.20752803  0.58256666  0.35228800     0.41600
H887        H  0.08420721  0.43483440  0.42020121     0.45000
H888        H  0.12551487  0.60341117  0.34196176     0.36500
C889        C  0.22995190  0.80320837  0.27430281    -0.27700
C890        C  0.19031856  0.78774291  0.26207479     0.01900
C891        C  0.14843634  0.77757198  0.27161750     0.29900
C892        C  0.14730455  0.78615055  0.29269636    -0.19500
C893        C  0.18744237  0.80422994  0.30473964    -0.28900
C894        C  0.22854734  0.81072286  0.29558108     0.44000
C895        C  0.19366031  0.78894139  0.23917276     0.05200
O896        O  0.10894596  0.76190398  0.26019849    -0.57500
H897        H  0.11526283  0.78047454  0.29948330     0.18100
O898        O  0.26847530  0.82848588  0.30681084    -0.64200
H899        H  0.26246226  0.81137922  0.26715903     0.16600
C900        C  0.21581986  0.83169718  0.22883916     0.28800
C901        C  0.20976849  0.83377643  0.20755633    -0.25100
C902        C  0.18284374  0.79348259  0.19611160    -0.24300
C903        C  0.16386387  0.75041646  0.20611516     0.40300
C904        C  0.16882234  0.74836688  0.22757633    -0.26800
O905        O  0.23953163  0.87197465  0.23975143    -0.58700
H906        H  0.22396098  0.86720130  0.20016103     0.15900
O907        O  0.13639687  0.71054754  0.19546216    -0.60100
H908        H  0.15124076  0.71525139  0.23533278     0.14300
H909        H  0.26902831  0.80123893  0.31244661     0.46200
H910        H  0.27246289  0.88084614  0.23843334     0.41600
H911        H  0.15616992  0.69683061  0.19282855     0.45000
H912        H  0.10955839  0.79005339  0.25499264     0.36500
C913        C  0.85062005  0.63994641  0.72825099    -0.27700
C914        C  0.80812720  0.60933084  0.73749243     0.01900
C915        C  0.76890239  0.58576546  0.72480711     0.29900
C916        C  0.77242173  0.59387980  0.70335506    -0.19500
C917        C  0.81468050  0.62615966  0.69429458    -0.28900
C918        C  0.85404992  0.64857267  0.70697349     0.44000
C919        C  0.80506340  0.60602869  0.76048417     0.05200
O920        O  0.72671589  0.55596141  0.73331222    -0.57500
H921        H  0.74161541  0.57674109  0.69397352     0.18100
O922        O  0.89594131  0.68032853  0.69880346    -0.64200
H923        H  0.88105338  0.65884577  0.73772754     0.16600
C924        C  0.83224967  0.59272886  0.77197625     0.28800
C925        C  0.83522177  0.59791852  0.79357689    -0.25100
C926        C  0.81211032  0.61729651  0.80394797    -0.24300
C927        C  0.78269708  0.62780708  0.79261591     0.40300
C928        C  0.77915735  0.62197044  0.77111456    -0.26800
O929        O  0.85677613  0.57556063  0.76214197    -0.58700
H930        H  0.85809842  0.58974759  0.80202987     0.15900
O931        O  0.75910888  0.64615525  0.80230857    -0.60100
H932        H  0.75818381  0.63250296  0.76258103     0.14300
H933        H  0.91109750  0.66242605  0.69496940     0.46200
H934        H  0.88898822  0.60159632  0.76150147     0.41600
H935        H  0.73132639  0.61933126  0.80828698     0.45000
H936        H  0.72581534  0.52598027  0.73431896     0.36500
C937        C  0.54405770  0.37105446  0.59681075    -0.27700
C938        C  0.54683740  0.39897514  0.61347173     0.01900
C939        C  0.51318455  0.38012700  0.62918466     0.29900
C940        C  0.47796416  0.33361873  0.62817724    -0.19500
C941        C  0.47556258  0.30550279  0.61153024    -0.28900
C942        C  0.50916092  0.32500768  0.59572878     0.44000
C943        C  0.58655976  0.44687561  0.61422589     0.05200
O944        O  0.51337243  0.40740728  0.64503035    -0.57500
H945        H  0.45225056  0.31972233  0.64033064     0.18100
O946        O  0.50890893  0.29925752  0.57921813    -0.64200
H947        H  0.56989271  0.38479430  0.58469119     0.16600
C948        C  0.61771828  0.46201368  0.63086651     0.28800
C949        C  0.65957722  0.50367130  0.62942705    -0.25100
C950        C  0.67196099  0.53012703  0.61122979    -0.24300
C951        C  0.63954894  0.51628467  0.59505295     0.40300
C952        C  0.59730759  0.47516204  0.59669544    -0.26800
O953        O  0.60940370  0.43470586  0.64793150    -0.58700
H954        H  0.68391594  0.51331052  0.64201349     0.15900
O955        O  0.64967439  0.54124781  0.57709643    -0.60100
H956        H  0.57374353  0.46407820  0.58375022     0.14300
H957        H  0.52761716  0.28536317  0.58362655     0.46200
H958        H  0.62313819  0.41519098  0.64468726     0.41600
H959        H  0.64173250  0.56556711  0.57985896     0.45000
H960        H  0.51931195  0.39469498  0.65772950     0.36500
C961        C  0.11689040  0.92075136  0.60646859    -0.27700
C962        C  0.09266376  0.90005265  0.62476116     0.01900
C963        C  0.11624284  0.91426353  0.64372231     0.29900
C964        C  0.16132446  0.95178995  0.64435464    -0.19500
C965        C  0.18412771  0.97534249  0.62626357    -0.28900
C966        C  0.16246613  0.95781140  0.60709326     0.44000
C967        C  0.04217748  0.86628517  0.62417513     0.05200
O968        O  0.09540268  0.89140280  0.66168266    -0.57500
H969        H  0.17795262  0.96346149  0.65920746     0.18100
O970        O  0.18394723  0.97885069  0.58898992    -0.64200
H971        H  0.09969440  0.90976574  0.59170329     0.16600
C972        C  0.01150260  0.87250894  0.63690737     0.28800
C973        C  0.96467086  0.83939909  0.63735959    -0.25100
C974        C  0.94663420  0.80055548  0.62448956    -0.24300
C975        C  0.97651553  0.79593404  0.61055540     0.40300
C976        C  0.02400172  0.82844029  0.61061151    -0.26800
O977        O  0.02678204  0.91133093  0.64878722    -0.58700
H978        H  0.94211614  0.84457767  0.64765588     0.15900
O979        O  0.95993627  0.75948951  0.59712067    -0.60100
H980        H  0.04674714  0.82367079  0.60028089     0.14300
H981        H  0.19714107  0.96020571  0.58358556     0.46200
H982        H  0.02745603  0.93504887  0.63939910     0.41600
H983        H  0.96187286  0.73476392  0.60466843     0.45000
H984        H  0.09424467  0.91457317  0.67081792     0.36500
C985        C  0.86881676  0.48226309  0.62695361    -0.27700
C986        C  0.85246030  0.44902286  0.61122958     0.01900
C987        C  0.82717746  0.45307338  0.59489055     0.29900
C988        C  0.81866806  0.48992744  0.59438451    -0.19500
C989        C  0.83506311  0.52359151  0.61003688    -0.28900
C990        C  0.86065008  0.51953172  0.62638256     0.44000
C991        C  0.85951097  0.40872639  0.61239625     0.05200
O992        O  0.80856679  0.41978142  0.57989896    -0.57500
H993        H  0.79832403  0.49157971  0.58179285     0.18100
O994        O  0.87798956  0.55172952  0.64183533    -0.64200
H995        H  0.88813033  0.47935523  0.63967758     0.16600
C996        C  0.88498147  0.40100020  0.59718043     0.28800
C997        C  0.88543081  0.35935509  0.59688079    -0.25100
C998        C  0.86154458  0.32533046  0.61194770    -0.24300
C999        C  0.83825363  0.33433502  0.62785435     0.40300
C1000       C  0.83729937  0.37569585  0.62794579    -0.26800
O1001       O  0.90821067  0.43330491  0.58212974    -0.58700
H1002       H  0.90340662  0.35307864  0.58450745     0.15900
O1003       O  0.81266115  0.30120119  0.64225972    -0.60100
H1004       H  0.81725504  0.38102768  0.63963839     0.14300
H1005       H  0.90924857  0.57521898  0.63706931     0.46200
H1006       H  0.93977469  0.45293397  0.58764595     0.41600
H1007       H  0.83320379  0.30880214  0.65437822     0.45000
H1008       H  0.82929321  0.43306437  0.56779191     0.36500
C1009       C  0.81200324  0.88408335  0.60396775    -0.27700
C1010       C  0.80260501  0.90235705  0.62155011     0.01900
C1011       C  0.78101757  0.87337699  0.63864393     0.29900
C1012       C  0.77423685  0.82853827  0.63887722    -0.19500
C1013       C  0.78828433  0.81184548  0.62211354    -0.28900
C1014       C  0.80457426  0.83909011  0.60404034     0.44000
C1015       C  0.81999642  0.95266166  0.62267483     0.05200
O1016       O  0.76693516  0.88895482  0.65518545    -0.57500
H1017       H  0.76006309  0.80766941  0.65263411     0.18100
O1018       O  0.81762551  0.82399621  0.58703868    -0.64200
H1019       H  0.82794221  0.90573331  0.59057171     0.16600
C1020       C  0.85025384  0.97913497  0.63858512     0.28800
C1021       C  0.86739344  0.02665526  0.63935351    -0.25100
C1022       C  0.85554902  0.04902034  0.62427013    -0.24300
C1023       C  0.82684241  0.02285823  0.60781744     0.40300
C1024       C  0.80924325  0.97500715  0.60714117    -0.26800
O1025       O  0.86554291  0.95922374  0.65269117    -0.58700
H1026       H  0.89075267  0.04621332  0.65172971     0.15900
O1027       O  0.81557861  0.04350658  0.59241199    -0.60100
H1028       H  0.78695492  0.95523780  0.59451307     0.14300
H1029       H  0.78956165  0.80826705  0.57836664     0.46200
H1030       H  0.85472926  0.96347260  0.66634058     0.41600
H1031       H  0.78572418  0.04043005  0.59670807     0.45000
H1032       H  0.78391607  0.88703603  0.66731091     0.36500
C1033       C  0.63876319  0.78605400  0.22870525    -0.27700
C1034       C  0.60968859  0.79829204  0.23911708     0.01900
C1035       C  0.58173194  0.81030997  0.22747805     0.29900
C1036       C  0.58685718  0.81457954  0.20584373    -0.19500
C1037       C  0.61987879  0.80717387  0.19579408    -0.28900
C1038       C  0.64414483  0.79058573  0.20733704     0.44000
C1039       C  0.61695949  0.80727757  0.26165515     0.05200
O1040       O  0.55306331  0.82257309  0.23719708    -0.57500
H1041       H  0.56795312  0.82742894  0.19720848     0.18100
O1042       O  0.67619136  0.78231912  0.19807991    -0.64200
H1043       H  0.66021779  0.77636659  0.23740584     0.16600
C1044       C  0.58272506  0.78258735  0.27663016     0.28800
C1045       C  0.59413472  0.78921558  0.29778669    -0.25100
C1046       C  0.63962254  0.82022945  0.30423264    -0.24300
C1047       C  0.67290002  0.84653882  0.28901271     0.40300
C1048       C  0.66141874  0.83979595  0.26816014    -0.26800
O1049       O  0.53866886  0.75099005  0.27077567    -0.58700
H1050       H  0.56779606  0.76879161  0.30907434     0.15900
O1051       O  0.71754757  0.87794449  0.29417081    -0.60100
H1052       H  0.68804217  0.85949477  0.25684212     0.14300
H1053       H  0.65801747  0.75236258  0.19090757     0.46200
H1054       H  0.53712486  0.72066514  0.27138531     0.41600
H1055       H  0.71822342  0.90775257  0.29560547     0.45000
H1056       H  0.52178829  0.79512495  0.23608931     0.36500
C1057       C  0.77713424  0.78713601  0.47550204    -0.27700
C1058       C  0.74789786  0.76954094  0.49272253     0.01900
C1059       C  0.70466209  0.76700482  0.49219999     0.29900
C1060       C  0.69014563  0.77932794  0.47420256    -0.19500
C1061       C  0.71837787  0.79480982  0.45651341    -0.28900
C1062       C  0.76284988  0.79991378  0.45755120     0.44000
C1063       C  0.76130590  0.75070733  0.51050259     0.05200
O1064       O  0.67682608  0.75329625  0.50937890    -0.57500
H1065       H  0.65634998  0.77621537  0.47403916     0.18100
O1066       O  0.79156539  0.81452767  0.44071820    -0.64200
H1067       H  0.81054382  0.78936603  0.47569681     0.16600
C1068       C  0.73553371  0.70345865  0.51537897     0.28800
C1069       C  0.74838573  0.68568909  0.53204056    -0.25100
C1070       C  0.78695399  0.71434963  0.54425288    -0.24300
C1071       C  0.81371263  0.76153743  0.53888054     0.40300
C1072       C  0.80072008  0.77931895  0.52217897    -0.26800
O1073       O  0.69880560  0.67403149  0.50333973    -0.58700
H1074       H  0.72756002  0.64924286  0.53551008     0.15900
O1075       O  0.85276609  0.79060984  0.54970392    -0.60100
H1076       H  0.82140674  0.81560129  0.51835639     0.14300
H1077       H  0.81298110  0.84787948  0.44305886     0.46200
H1078       H  0.67107561  0.66384530  0.51213110     0.41600
H1079       H  0.87765957  0.78682305  0.54337187     0.45000
H1080       H  0.64924973  0.72356363  0.50564355     0.36500
C1081       C  0.87878934  0.01829135  0.36263052    -0.27700
C1082       C  0.87026739  0.04718876  0.37527479     0.01900
C1083       C  0.83019795  0.02781617  0.38761911     0.29900
C1084       C  0.79918053  0.98003619  0.38703822    -0.19500
C1085       C  0.80762200  0.95125887  0.37417573    -0.28900
C1086       C  0.84813028  0.97087020  0.36206251     0.44000
C1087       C  0.90448659  0.09722682  0.37531637     0.05200
O1088       O  0.82002897  0.05556417  0.39943500    -0.57500
H1089       H  0.76798908  0.96565647  0.39626952     0.18100
O1090       O  0.85838755  0.94394645  0.34969235    -0.64200
H1091       H  0.90979415  0.03260818  0.35325907     0.16600
C1092       C  0.92906857  0.11957012  0.39327631     0.28800
C1093       C  0.96762569  0.16402956  0.39197793    -0.25100
C1094       C  0.98282943  0.18662703  0.37281858    -0.24300
C1095       C  0.95570307  0.16547744  0.35514542     0.40300
C1096       C  0.91722565  0.12116228  0.35650346    -0.26800
O1097       O  0.91776785  0.09710014  0.41191533    -0.58700
H1098       H  0.98744192  0.17937363  0.40583130     0.15900
O1099       O  0.96783697  0.18652815  0.33619358    -0.60100
H1100       H  0.89839948  0.10449858  0.34257307     0.14300
H1101       H  0.87470970  0.93295840  0.35877573     0.46200
H1102       H  0.93536298  0.08054512  0.41249780     0.41600
H1103       H  0.95024611  0.20296691  0.33482709     0.45000
H1104       H  0.82318973  0.04821269  0.41395197     0.36500
C1105       C  0.48708348  0.59966128  0.39691602    -0.27700
C1106       C  0.45407425  0.59305403  0.38196123     0.01900
C1107       C  0.46420989  0.62822820  0.36747825     0.29900
C1108       C  0.50554594  0.67043181  0.36902954    -0.19500
C1109       C  0.53701562  0.67823003  0.38499126    -0.28900
C1110       C  0.52834327  0.64177171  0.39845647     0.44000
C1111       C  0.40713158  0.55231868  0.38363810     0.05200
O1112       O  0.43208649  0.62335694  0.35309415    -0.57500
H1113       H  0.51144142  0.69816413  0.35859065     0.18100
O1114       O  0.55907781  0.64756036  0.41370972    -0.64200
H1115       H  0.47985756  0.57267554  0.40803088     0.16600
C1116       C  0.38682891  0.52018785  0.36754571     0.28800
C1117       C  0.34181586  0.48277881  0.36980058    -0.25100
C1118       C  0.31639519  0.47660070  0.38807492    -0.24300
C1119       C  0.33719341  0.50915517  0.40413772     0.40300
C1120       C  0.38206763  0.54619924  0.40184719    -0.26800
O1121       O  0.41063554  0.52493799  0.34960895    -0.58700
H1122       H  0.32684061  0.45852095  0.35719506     0.15900
O1123       O  0.31386080  0.50581730  0.42206735    -0.60100
H1124       H  0.39714498  0.57096151  0.41428064     0.14300
H1125       H  0.58018251  0.63827435  0.40737678     0.46200
H1126       H  0.42980288  0.51066930  0.35249553     0.41600
H1127       H  0.29843482  0.52407687  0.41957061     0.45000
H1128       H  0.44382200  0.61879275  0.33975734     0.36500
C1129       C  0.98575361  0.84416267  0.36077651    -0.27700
C1130       C  0.96223095  0.82245341  0.37897383     0.01900
C1131       C  0.98626524  0.81490600  0.39488991     0.29900
C1132       C  0.03319854  0.82887865  0.39233650    -0.19500
C1133       C  0.05690980  0.85088933  0.37408000    -0.28900
C1134       C  0.03247431  0.85863441  0.35827587     0.44000
C1135       C  0.91286235  0.80903570  0.38083235     0.05200
O1136       O  0.96376461  0.79245683  0.41262400    -0.57500
H1137       H  0.05097348  0.82231819  0.40465619     0.18100
O1138       O  0.05392474  0.88104919  0.34036479    -0.64200
H1139       H  0.96788819  0.85078020  0.34850303     0.16600
C1140       C  0.89783813  0.82889733  0.39589901     0.28800
C1141       C  0.85297144  0.82197497  0.39504066    -0.25100
C1142       C  0.82276099  0.79621204  0.37900145    -0.24300
C1143       C  0.83714445  0.77449239  0.36455716     0.40300
C1144       C  0.88176936  0.78095958  0.36556426    -0.26800
O1145       O  0.92769233  0.85779336  0.41061380    -0.58700
H1146       H  0.84316879  0.83992252  0.40601708     0.15900
O1147       O  0.80867325  0.74865406  0.34880075    -0.60100
H1148       H  0.89287416  0.76555881  0.35382309     0.14300
H1149       H  0.06556894  0.91419411  0.34315121     0.46200
H1150       H  0.94025782  0.88935185  0.40492443     0.41600
H1151       H  0.79050827  0.71696546  0.35446278     0.45000
H1152       H  0.97595632  0.81630752  0.42357552     0.36500
C1153       C  0.41225989  0.89170453  0.39891976    -0.27700
C1154       C  0.42258336  0.87210967  0.38204068     0.01900
C1155       C  0.39070841  0.85334253  0.36575420     0.29900
C1156       C  0.34768100  0.85071389  0.36739192    -0.19500
C1157       C  0.33562683  0.86633651  0.38521659    -0.28900
C1158       C  0.36936218  0.88910128  0.40057874     0.44000
C1159       C  0.46222184  0.86400560  0.38353834     0.05200
O1160       O  0.39915159  0.83289836  0.34928056    -0.57500
H1161       H  0.32248491  0.83317866  0.35534099     0.18100
O1162       O  0.35993204  0.90649686  0.41789517    -0.64200
H1163       H  0.43663887  0.90670798  0.41148124     0.16600
C1164       C  0.49661175  0.87830188  0.36820572     0.28800
C1165       C  0.53175268  0.86717821  0.37000678    -0.25100
C1166       C  0.53339874  0.84198107  0.38708030    -0.24300
C1167       C  0.49871913  0.82794485  0.40240259     0.40300
C1168       C  0.46406301  0.83926555  0.40058341    -0.26800
O1169       O  0.49627065  0.90316405  0.35146686    -0.58700
H1170       H  0.55788185  0.87854506  0.35805670     0.15900
O1171       O  0.49758290  0.80229530  0.41913344    -0.60100
H1172       H  0.43755021  0.82745643  0.41239164     0.14300
H1173       H  0.36394459  0.93671344  0.41359694     0.46200
H1174       H  0.51560521  0.93595159  0.35552364     0.41600
H1175       H  0.47796816  0.76968681  0.41484791     0.45000
H1176       H  0.40518738  0.85401271  0.33746044     0.36500
loop_ 
_geom_bond_atom_site_label_1 
_geom_bond_atom_site_label_2 
_geom_bond_distance 
_geom_bond_site_symmetry_2 
_ccdc_geom_bond_type 
O1           Ni7   1.921       .  S
O1           C22   1.268       .  A
O2          Ni25   1.908       .  S
O2           C11   1.270       .  A
O3           Ni7   1.903       .  S
O3          Ni25   1.908       .  S
O3          Ni19   1.923       .  S
O3           H26   0.966       .  S
C4           O21   1.280       .  A
C4           O13   1.279       .  A
C4         C1166   1.491       .  S
O5          Ni24   1.942       .  S
O5           C11   1.277       .  A
O6          Ni24   1.912       .  S
O6            C8   1.270       .  A
Ni7          O10   1.924       .  S
Ni7          O12   1.903       .  S
C8           O18   1.270       .  A
C8         C1109   1.479       .  S
O9          Ni25   1.921       .  S
O9           C15   1.275       .  A
O10          C15   1.276       .  A
C11        C1061   1.492       .  S
O12          C14   1.269       .  A
O13         Ni24   1.928       .  S
C14          O20   1.273       .  A
C14        C1085   1.479       .  S
C15        C1142   1.484       .  S
H16          O17   0.966       .  S
O17         Ni25   1.905       .  S
O17         Ni19   1.910       .  S
O17         Ni24   1.899       .  S
O18         Ni19   1.921       .  S
Ni19         O23   1.928       .  S
Ni19         O21   1.923       .  S
O20         Ni25   1.931       .  S
C22          O23   1.270       .  A
C22        C1046   1.494       .  S
O27         Ni33   1.927       .  S
O27          C48   1.270       .  A
O28         Ni51   1.907       .  S
O28          C37   1.267       .  A
O29         Ni33   1.905       .  S
O29         Ni51   1.904       .  S
O29         Ni45   1.917       .  S
O29          H52   0.966       .  S
C30          O47   1.281       .  A
C30          O39   1.279       .  A
C30         C989   1.491       .  S
O31         Ni50   1.943       .  S
O31          C37   1.275       .  A
O32         Ni50   1.904       .  S
O32          C34   1.269       .  A
Ni33         O36   1.925       .  S
Ni33         O38   1.907       .  S
C34          O44   1.273       .  A
C34         C950   1.484       .  S
O35         Ni51   1.913       .  S
O35          C41   1.274       .  A
O36          C41   1.277       .  A
C37        C1070   1.493       .  S
O38          C40   1.270       .  A
O39         Ni50   1.927       .  S
C40          O46   1.272       .  A
C40         C974   1.484       .  S
C41        C1013   1.485       .  S
H42          O43   0.966       .  S
O43         Ni51   1.906       .  S
O43         Ni45   1.915       .  S
O43         Ni50   1.904       .  S
O44         Ni45   1.928       .  S
Ni45         O49   1.934       .  S
Ni45         O47   1.929       .  S
O46         Ni51   1.933       .  S
C48          O49   1.273       .  A
C48         C917   1.489       .  S
O53         Ni59   1.933       .  S
O53          C74   1.270       .  A
O54         Ni77   1.922       .  S
O54          C63   1.271       .  A
O55         Ni59   1.911       .  S
O55         Ni77   1.915       .  S
O55         Ni71   1.911       .  S
O55          H78   0.966       .  S
C56          O73   1.275       .  A
C56          O65   1.276       .  A
C56         C869   1.486       .  S
O57         Ni76   1.933       .  S
O57          C63   1.274       .  A
O58         Ni76   1.907       .  S
O58          C60   1.269       .  A
Ni59         O62   1.925       .  S
Ni59         O64   1.901       .  S
C60          O70   1.271       .  A
C60        C1157   1.486       .  S
O61         Ni77   1.909       .  S
O61          C67   1.273       .  A
O62          C67   1.276       .  A
C63         C821   1.499       .  S
O64          C66   1.268       .  A
O65         Ni76   1.926       .  S
C66          O72   1.275       .  A
C66        C1133   1.489       .  S
C67         C854   1.481   1_565  S
H68          O69   0.966       .  S
O69         Ni77   1.908       .  S
O69         Ni71   1.917       .  S
O69         Ni76   1.908       .  S
O70         Ni71   1.928       .  S
Ni71         O75   1.920       .  S
Ni71         O73   1.913       .  S
O72         Ni77   1.936       .  S
C74          O75   1.268       .  A
C74         C893   1.485       .  S
O79         Ni85   1.928       .  S
O79         C100   1.271       .  A
O80        Ni103   1.912       .  S
O80          C89   1.266       .  A
O81         Ni85   1.916       .  S
O81        Ni103   1.920       .  S
O81         Ni97   1.918       .  S
O81         H104   0.967       .  S
C82          O99   1.278       .  A
C82          O91   1.276       .  A
C82         C941   1.488       .  S
O83        Ni102   1.940       .  S
O83          C89   1.274       .  A
O84        Ni102   1.906       .  S
O84          C86   1.270       .  A
Ni85         O88   1.932       .  S
Ni85         O90   1.905       .  S
C86          O96   1.275       .  A
C86         C782   1.492       .  S
O87        Ni103   1.911       .  S
O87          C93   1.271       .  A
O88          C93   1.276       .  A
C89         C830   1.497       .  S
O90          C92   1.268       .  A
O91        Ni102   1.920       .  S
C92          O98   1.271       .  A
C92         C806   1.479       .  S
C93         C965   1.486   1_545  S
H94          O95   0.966       .  S
O95        Ni103   1.908       .  S
O95         Ni97   1.918       .  S
O95        Ni102   1.908       .  S
O96         Ni97   1.936       .  S
Ni97        O101   1.923       .  S
Ni97         O99   1.927       .  S
O98        Ni103   1.934       .  S
C100        O101   1.271       .  A
C100        C749   1.482       .  S
O105       Ni111   1.926       .  S
O105        C126   1.269       .  A
O106       Ni129   1.908       .  S
O106        C115   1.268       .  A
O107       Ni111   1.900       .  S
O107       Ni129   1.903       .  S
O107       Ni123   1.911       .  S
O107        H130   0.966       .  S
C108        O125   1.277       .  A
C108        O117   1.279       .  A
C108       C1118   1.491       .  S
O109       Ni128   1.944       .  S
O109        C115   1.277       .  A
O110       Ni128   1.906       .  S
O110        C112   1.269       .  A
Ni111       O114   1.922       .  S
Ni111       O116   1.899       .  S
C112        O122   1.273       .  A
C112        C878   1.485       .  S
O113       Ni129   1.921       .  S
O113        C119   1.278       .  A
O114        C119   1.277       .  A
C115        C710   1.498       .  S
O116        C118   1.267       .  A
O117       Ni128   1.931       .  S
C118        O124   1.274       .  A
C118        C845   1.484       .  S
C119       C1094   1.489   1_455  S
H120        O121   0.966       .  S
O121       Ni129   1.912       .  S
O121       Ni123   1.913       .  S
O121       Ni128   1.905       .  S
O122       Ni123   1.927       .  S
Ni123       O127   1.925       .  S
Ni123       O125   1.917       .  S
O124       Ni129   1.936       .  S
C126        O127   1.270       .  A
C126        C725   1.484       .  S
O131       Ni137   1.915       .  S
O131        C152   1.266       .  A
O132       Ni155   1.920       .  S
O132        C141   1.272       .  A
O133       Ni137   1.903       .  S
O133       Ni155   1.912       .  S
O133       Ni149   1.916       .  S
O133        H156   0.967       .  S
C134        O151   1.278       .  A
C134        O143   1.279       .  A
C134        C773   1.484       .  S
O135       Ni154   1.937       .  S
O135        C141   1.275       .  A
O136       Ni154   1.908       .  S
O136        C138   1.270       .  A
Ni137       O140   1.906       .  S
Ni137       O142   1.899       .  S
C138        O148   1.274       .  A
C138        C998   1.482       .  S
O139       Ni155   1.933       .  S
O139        C145   1.280       .  A
O140        C145   1.274       .  A
C141        C701   1.498       .  S
O142        C144   1.268       .  A
O143       Ni154   1.926       .  S
C144        O150   1.272       .  A
C144       C1022   1.482       .  S
C145        C797   1.490   1_655  S
H146        O147   0.966       .  S
O147       Ni155   1.916       .  S
O147       Ni149   1.913       .  S
O147       Ni154   1.899       .  S
O148       Ni149   1.930       .  S
Ni149       O153   1.933       .  S
Ni149       O151   1.923       .  S
O150       Ni155   1.932       .  S
C152        O153   1.270       .  A
C152        C677   1.488       .  S
O157       Ni163   1.928       .  S
O157        C178   1.270       .  A
O158       Ni181   1.906       .  S
O158        C167   1.267       .  A
O159       Ni163   1.911       .  S
O159       Ni181   1.911       .  S
O159       Ni175   1.919       .  S
O159        H182   0.967       .  S
C160        O177   1.281       .  A
C160        O169   1.280       .  A
C160        C614   1.489       .  S
O161       Ni180   1.941       .  S
O161        C167   1.275       .  A
O162       Ni180   1.912       .  S
O162        C164   1.270       .  A
Ni163       O166   1.928       .  S
Ni163       O168   1.900       .  S
C164        O174   1.272       .  A
C164        C581   1.491       .  S
O165       Ni181   1.914       .  S
O165        C171   1.273       .  A
O166        C171   1.277       .  A
C167        C653   1.473       .  S
O168        C170   1.267       .  A
O169       Ni180   1.926       .  S
C170        O176   1.275       .  A
C170        C557   1.493       .  S
C171        C638   1.493       .  S
H172        O173   0.966       .  S
O173       Ni181   1.903       .  S
O173       Ni175   1.904       .  S
O173       Ni180   1.902       .  S
O174       Ni175   1.927       .  S
Ni175       O179   1.923       .  S
Ni175       O177   1.925       .  S
O176       Ni181   1.937       .  S
C178        O179   1.270       .  A
C178        C734   1.485       .  S
O183       Ni189   1.937       .  S
O183        C204   1.272       .  A
O184       Ni207   1.916       .  S
O184        C193   1.270       .  A
O185       Ni189   1.911       .  S
O185       Ni207   1.919       .  S
O185       Ni201   1.917       .  S
O185        H208   0.966       .  S
C186        O203   1.278       .  A
C186        O195   1.279       .  A
C186        C518   1.486       .  S
O187       Ni206   1.932       .  S
O187        C193   1.273       .  A
O188       Ni206   1.907       .  S
O188        C190   1.268       .  A
Ni189       O192   1.928       .  S
Ni189       O194   1.898       .  S
C190        O200   1.269       .  A
C190        C461   1.479       .  S
O191       Ni207   1.912       .  S
O191        C197   1.272       .  A
O192        C197   1.276       .  A
C193        C662   1.490       .  S
O194        C196   1.269       .  A
O195       Ni206   1.920       .  S
C196        O202   1.275       .  A
C196        C494   1.482       .  S
C197        C542   1.485       .  S
H198        O199   0.966       .  S
O199       Ni207   1.901       .  S
O199       Ni201   1.903       .  S
O199       Ni206   1.901       .  S
O200       Ni201   1.921       .  S
Ni201       O205   1.909       .  S
Ni201       O203   1.921       .  S
O202       Ni207   1.938       .  S
C204        O205   1.266       .  A
C204        C758   1.479       .  S
O209       Ni215   1.927       .  S
O209        C230   1.271       .  A
O210       Ni233   1.911       .  S
O210        C219   1.268       .  A
O211       Ni215   1.915       .  S
O211       Ni233   1.923       .  S
O211       Ni227   1.927       .  S
O211        H234   0.968       .  S
C212        O229   1.280       .  A
C212        O221   1.278       .  A
C212        C446   1.487       .  S
O213       Ni232   1.932       .  S
O213        C219   1.273       .  A
O214       Ni232   1.903       .  S
O214        C216   1.268       .  A
Ni215       O218   1.934       .  S
Ni215       O220   1.905       .  S
C216        O226   1.274       .  A
C216        C605   1.484       .  S
O217       Ni233   1.919       .  S
O217        C223   1.272       .  A
O218        C223   1.274       .  A
C219        C389   1.490       .  S
O220        C222   1.269       .  A
O221       Ni232   1.921       .  S
C222        O228   1.275       .  A
C222        C629   1.478       .  S
C223        C413   1.487   1_455  S
H224        O225   0.966       .  S
O225       Ni233   1.905       .  S
O225       Ni227   1.905       .  S
O225       Ni232   1.902       .  S
O226       Ni227   1.932       .  S
Ni227       O231   1.922       .  S
Ni227       O229   1.931       .  S
O228       Ni233   1.940       .  S
C230        O231   1.271       .  A
C230        C902   1.479       .  S
O235       Ni241   1.933       .  S
O235        C256   1.270       .  A
O236       Ni259   1.917       .  S
O236        C245   1.269       .  A
O237       Ni241   1.914       .  S
O237       Ni259   1.916       .  S
O237       Ni253   1.918       .  S
O237        H260   0.966       .  S
C238        O255   1.280       .  A
C238        O247   1.277       .  A
C238        C470   1.489       .  S
O239       Ni258   1.932       .  S
O239        C245   1.273       .  A
O240       Ni258   1.907       .  S
O240        C242   1.269       .  A
Ni241       O244   1.927       .  S
Ni241       O246   1.907       .  S
C242        O252   1.273       .  A
C242        C374   1.490       .  S
O243       Ni259   1.913       .  S
O243        C249   1.273       .  A
O244        C249   1.276       .  A
C245        C398   1.492       .  S
O246        C248   1.270       .  A
O247       Ni258   1.919       .  S
C248        O254   1.274       .  A
C248        C341   1.486       .  S
C249        C485   1.481   1_655  S
H250        O251   0.966       .  S
O251       Ni259   1.909       .  S
O251       Ni253   1.913       .  S
O251       Ni258   1.903       .  S
O252       Ni253   1.929       .  S
Ni253       O257   1.929       .  S
Ni253       O255   1.927       .  S
O254       Ni259   1.936       .  S
C256        O257   1.271       .  A
C256        C926   1.484       .  S
O261       Ni267   1.925       .  S
O261        C282   1.270       .  A
O262       Ni285   1.911       .  S
O262        C271   1.270       .  A
O263       Ni267   1.908       .  S
O263       Ni285   1.909       .  S
O263       Ni279   1.923       .  S
O263        H286   0.966       .  S
C264        O281   1.279       .  A
C264        O273   1.278       .  A
C264        C590   1.487       .  S
O265       Ni284   1.937       .  S
O265        C271   1.275       .  A
O266       Ni284   1.904       .  S
O266        C268   1.269       .  A
Ni267       O270   1.925       .  S
Ni267       O272   1.909       .  S
C268        O278   1.272       .  A
C268        C437   1.482       .  S
O269       Ni285   1.919       .  S
O269        C275   1.274       .  A
O270        C275   1.275       .  A
C271        C317   1.493       .  S
O272        C274   1.271       .  A
O273       Ni284   1.925       .  S
C274        O280   1.275       .  A
C274        C422   1.488       .  S
C275        C566   1.481   1_565  S
H276        O277   0.966       .  S
O277       Ni285   1.909       .  S
O277       Ni279   1.911       .  S
O277       Ni284   1.901       .  S
O278       Ni279   1.928       .  S
Ni279       O283   1.925       .  S
Ni279       O281   1.927       .  S
O280       Ni285   1.934       .  S
C282        O283   1.269       .  A
C282       C1037   1.481       .  S
O287       Ni293   1.933       .  S
O287        C308   1.271       .  A
O288       Ni311   1.910       .  S
O288        C297   1.269       .  A
O289       Ni293   1.908       .  S
O289       Ni311   1.911       .  S
O289       Ni305   1.915       .  S
O289        H312   0.966       .  S
C290        O307   1.277       .  A
C290        O299   1.278       .  A
C290        C365   1.485       .  S
O291       Ni310   1.937       .  S
O291        C297   1.274       .  A
O292       Ni310   1.903       .  S
O292        C294   1.269       .  A
Ni293       O296   1.924       .  S
Ni293       O298   1.902       .  S
C294        O304   1.272       .  A
C294        C509   1.482       .  S
O295       Ni311   1.922       .  S
O295        C301   1.276       .  A
O296        C301   1.277       .  A
C297        C326   1.492       .  S
O298        C300   1.269       .  A
O299       Ni310   1.925       .  S
C300        O306   1.273       .  A
C300        C533   1.482       .  S
C301        C350   1.489   1_545  S
H302        O303   0.966       .  S
O303       Ni311   1.909       .  S
O303       Ni305   1.912       .  S
O303       Ni310   1.904       .  S
O304       Ni305   1.928       .  S
Ni305       O309   1.918       .  S
Ni305       O307   1.923       .  S
O306       Ni311   1.932       .  S
C308        O309   1.268       .  A
C308        C686   1.479       .  S
C313        C314   1.404       .  A
C313        C318   1.406       .  A
C313        H323   1.084   1_565  S
C314        C319   1.488   1_564  S
C314        C315   1.407       .  A
C315        C316   1.402       .  A
C315        O320   1.373   1_554  S
C316        C317   1.408       .  A
C316        H321   1.083       .  S
C317        C318   1.414       .  A
C318        O322   1.371       .  S
C319        C324   1.407       .  A
C319        C328   1.404       .  A
O320        H336   0.992       .  S
O322        H333   0.992       .  S
C324        C325   1.401       .  A
C324        O329   1.373       .  S
C325        C326   1.408       .  A
C325        H330   1.083       .  S
C326        C327   1.414       .  A
C327        C328   1.406       .  A
C327        O331   1.371       .  S
C328        H332   1.083   1_545  S
O329        H334   0.992       .  S
O331        H335   0.992       .  S
C337        C338   1.406       .  A
C337        C342   1.407       .  A
C337        H347   1.083       .  S
C338        C343   1.489       .  S
C338        C339   1.409       .  A
C339        C340   1.399       .  A
C339        O344   1.373       .  S
C340        C341   1.405       .  A
C340        H345   1.084       .  S
C341        C342   1.412       .  A
C342        O346   1.371       .  S
C343        C348   1.409       .  A
C343        C352   1.404       .  A
O344        H360   0.992       .  S
O346        H357   0.992       .  S
C348        C349   1.399       .  A
C348        O353   1.372       .  S
C349        C350   1.406       .  A
C349        H354   1.084       .  S
C350        C351   1.415       .  A
C351        C352   1.404       .  A
C351        O355   1.371       .  S
C352        H356   1.083       .  S
O353        H358   0.992       .  S
O355        H359   0.992       .  S
C361        C362   1.401       .  A
C361        C366   1.395       .  A
C361        H371   1.084       .  S
C362        C367   1.485       .  S
C362        C363   1.410       .  A
C363        C364   1.408       .  A
C363        O368   1.372       .  S
C364        C365   1.407       .  A
C364        H369   1.083       .  S
C365        C366   1.412       .  A
C366        O370   1.372       .  S
C367        C372   1.407       .  A
C367        C376   1.404       .  A
O368        H384   0.992       .  S
O370        H381   0.992       .  S
C372        C373   1.402       .  A
C372        O377   1.371       .  S
C373        C374   1.409       .  A
C373        H378   1.083       .  S
C374        C375   1.413       .  A
C375        C376   1.400       .  A
C375        O379   1.372       .  S
C376        H380   1.084       .  S
O377        H382   0.992       .  S
O379        H383   0.991       .  S
C385        C386   1.403       .  A
C385        C390   1.404       .  A
C385        H395   1.083   1_455  S
C386        C391   1.487   1_454  S
C386        C387   1.408       .  A
C387        C388   1.401       .  A
C387        O392   1.373       .  S
C388        C389   1.407       .  A
C388        H393   1.083       .  S
C389        C390   1.414       .  A
C390        O394   1.371       .  S
C391        C396   1.406       .  A
C391        C400   1.406       .  A
O392        H408   0.992       .  S
O394        H405   0.992       .  S
C396        C397   1.400       .  A
C396        O401   1.373   1_556  S
C397        C398   1.407       .  A
C397        H402   1.083       .  S
C398        C399   1.414       .  A
C399        C400   1.407       .  A
C399        O403   1.370       .  S
C400        H404   1.084   1_655  S
O401        H406   0.992       .  S
O403        H407   0.992       .  S
C409        C410   1.407       .  A
C409        C414   1.407       .  A
C409        H419   1.084       .  S
C410        C415   1.493       .  S
C410        C411   1.409       .  A
C411        C412   1.403       .  A
C411        O416   1.373       .  S
C412        C413   1.404       .  A
C412        H417   1.084       .  S
C413        C414   1.410       .  A
C414        O418   1.371       .  S
C415        C420   1.411       .  A
C415        C424   1.406       .  A
O416        H432   0.992       .  S
O418        H429   0.992       .  S
C420        C421   1.402       .  A
C420        O425   1.373       .  S
C421        C422   1.405       .  A
C421        H426   1.084       .  S
C422        C423   1.411       .  A
C423        C424   1.406       .  A
C423        O427   1.371       .  S
C424        H428   1.083       .  S
O425        H430   0.992       .  S
O427        H431   0.992       .  S
C433        C434   1.403       .  A
C433        C438   1.401       .  A
C433        H443   1.084       .  S
C434        C439   1.485       .  S
C434        C435   1.409       .  A
C435        C436   1.402       .  A
C435        O440   1.373       .  S
C436        C437   1.405       .  A
C436        H441   1.084       .  S
C437        C438   1.412       .  A
C438        O442   1.372       .  S
C439        C444   1.408       .  A
C439        C448   1.405       .  A
O440        H456   0.992       .  S
O442        H453   0.992       .  S
C444        C445   1.396       .  A
C444        O449   1.372       .  S
C445        C446   1.406       .  A
C445        H450   1.083       .  S
C446        C447   1.412       .  A
C447        C448   1.405       .  A
C447        O451   1.371       .  S
C448        H452   1.084       .  S
O449        H454   0.992       .  S
O451        H455   0.992       .  S
C457        C458   1.405       .  A
C457        C462   1.399       .  A
C457        H467   1.084       .  S
C458        C463   1.484       .  S
C458        C459   1.409       .  A
C459        C460   1.403       .  A
C459        O464   1.372       .  S
C460        C461   1.406       .  A
C460        H465   1.084       .  S
C461        C462   1.408       .  A
C462        O466   1.371       .  S
C463        C468   1.409       .  A
C463        C472   1.401       .  A
O464        H480   0.992       .  S
O466        H477   0.992       .  S
C468        C469   1.404       .  A
C468        O473   1.371       .  S
C469        C470   1.408       .  A
C469        H474   1.083       .  S
C470        C471   1.416       .  A
C471        C472   1.396       .  A
C471        O475   1.372       .  S
C472        H476   1.084       .  S
O473        H478   0.992       .  S
O475        H479   0.992       .  S
C481        C482   1.404       .  A
C481        C486   1.399       .  A
C481        H491   1.084       .  S
C482        C487   1.483       .  S
C482        C483   1.407       .  A
C483        C484   1.402       .  A
C483        O488   1.372       .  S
C484        C485   1.406       .  A
C484        H489   1.083       .  S
C485        C486   1.409       .  A
C486        O490   1.372       .  S
C487        C492   1.410       .  A
C487        C496   1.401       .  A
O488        H504   0.992       .  S
O490        H501   0.992       .  S
C492        C493   1.405   1_565  A
C492        O497   1.371       .  S
C493        C494   1.407       .  A
C493        H498   1.083       .  S
C494        C495   1.413       .  A
C495        C496   1.394   1_545  A
C495        O499   1.372       .  S
C496        H500   1.084       .  S
O497        H502   0.992       .  S
O499        H503   0.992       .  S
C505        C506   1.403       .  A
C505        C510   1.400       .  A
C505        H515   1.084       .  S
C506        C511   1.486       .  S
C506        C507   1.410       .  A
C507        C508   1.401       .  A
C507        O512   1.374       .  S
C508        C509   1.405       .  A
C508        H513   1.084       .  S
C509        C510   1.412       .  A
C510        O514   1.371       .  S
C511        C516   1.409       .  A
C511        C520   1.405       .  A
O512        H528   0.992       .  S
O514        H525   0.992       .  S
C516        C517   1.394       .  A
C516        O521   1.372       .  S
C517        C518   1.406       .  A
C517        H522   1.083       .  S
C518        C519   1.413       .  A
C519        C520   1.404       .  A
C519        O523   1.371       .  S
C520        H524   1.083       .  S
O521        H526   0.992       .  S
O523        H527   0.992       .  S
C529        C530   1.406       .  A
C529        C534   1.406   1_455  A
C529        H539   1.083       .  S
C530        C535   1.485       .  S
C530        C531   1.408       .  A
C531        C532   1.396   1_455  A
C531        O536   1.373       .  S
C532        C533   1.404       .  A
C532        H537   1.084       .  S
C533        C534   1.412       .  A
C534        O538   1.371       .  S
C535        C540   1.409       .  A
C535        C544   1.403       .  A
O536        H552   0.992       .  S
O538        H549   0.992       .  S
C540        C541   1.398       .  A
C540        O545   1.372       .  S
C541        C542   1.405       .  A
C541        H546   1.084       .  S
C542        C543   1.414       .  A
C543        C544   1.403       .  A
C543        O547   1.372       .  S
C544        H548   1.084       .  S
O545        H550   0.991       .  S
O547        H551   0.992       .  S
C553        C554   1.402       .  A
C553        C558   1.399   1_655  A
C553        H563   1.084       .  S
C554        C559   1.490       .  S
C554        C555   1.409       .  A
C555        C556   1.405   1_655  A
C555        O560   1.373       .  S
C556        C557   1.407       .  A
C556        H561   1.083       .  S
C557        C558   1.417       .  A
C558        O562   1.372       .  S
C559        C564   1.411       .  A
C559        C568   1.407       .  A
O560        H576   0.992       .  S
O562        H573   0.992       .  S
C564        C565   1.399       .  A
C564        O569   1.372       .  S
C565        C566   1.404       .  A
C565        H570   1.084   1_545  S
C566        C567   1.409       .  A
C567        C568   1.404       .  A
C567        O571   1.371       .  S
C568        H572   1.084       .  S
O569        H574   0.992       .  S
O571        H575   0.992       .  S
C577        C578   1.404       .  A
C577        C582   1.401       .  A
C577        H587   1.084       .  S
C578        C583   1.488       .  S
C578        C579   1.407       .  A
C579        C580   1.405       .  A
C579        O584   1.372       .  S
C580        C581   1.410       .  A
C580        H585   1.084       .  S
C581        C582   1.412       .  A
C582        O586   1.372       .  S
C583        C588   1.410       .  A
C583        C592   1.402       .  A
O584        H600   0.992       .  S
O586        H597   0.992       .  S
C588        C589   1.408       .  A
C588        O593   1.371       .  S
C589        C590   1.407       .  A
C589        H594   1.083       .  S
C590        C591   1.414       .  A
C591        C592   1.396       .  A
C591        O595   1.372       .  S
C592        H596   1.084       .  S
O593        H598   0.992       .  S
O595        H599   0.992       .  S
C601        C602   1.405       .  A
C601        C606   1.401       .  A
C601        H611   1.083       .  S
C602        C607   1.489       .  S
C602        C603   1.410       .  A
C603        C604   1.403       .  A
C603        O608   1.374       .  S
C604        C605   1.406       .  A
C604        H609   1.084       .  S
C605        C606   1.410       .  A
C606        O610   1.371       .  S
C607        C612   1.410       .  A
C607        C616   1.405       .  A
O608        H624   0.992       .  S
O610        H621   0.992       .  S
C612        C613   1.398       .  A
C612        O617   1.372       .  S
C613        C614   1.407       .  A
C613        H618   1.083       .  S
C614        C615   1.413       .  A
C615        C616   1.403       .  A
C615        O619   1.371       .  S
C616        H620   1.083       .  S
O617        H622   0.992       .  S
O619        H623   0.992       .  S
C625        C626   1.406       .  A
C625        C630   1.401   1_545  A
C625        H635   1.083       .  S
C626        C631   1.490       .  S
C626        C627   1.412   1_545  A
C627        C628   1.399       .  A
C627        O632   1.372   1_565  S
C628        C629   1.403       .  A
C628        H633   1.084       .  S
C629        C630   1.410       .  A
C630        O634   1.372       .  S
C631        C636   1.410       .  A
C631        C640   1.405       .  A
O632        H648   0.992       .  S
O634        H645   0.992       .  S
C636        C637   1.398       .  A
C636        O641   1.372       .  S
C637        C638   1.407       .  A
C637        H642   1.083       .  S
C638        C639   1.416       .  A
C639        C640   1.403       .  A
C639        O643   1.372       .  S
C640        H644   1.083       .  S
O641        H646   0.992       .  S
O643        H647   0.992       .  S
C649        C650   1.405       .  A
C649        C654   1.401       .  A
C649        H659   1.083       .  S
C650        C655   1.488   1_554  S
C650        C651   1.411       .  A
C651        C652   1.404       .  A
C651        O656   1.372   1_554  S
C652        C653   1.402       .  A
C652        H657   1.083       .  S
C653        C654   1.406       .  A
C654        O658   1.372       .  S
C655        C660   1.408       .  A
C655        C664   1.405       .  A
O656        H672   0.992       .  S
O658        H669   0.992       .  S
C660        C661   1.400       .  A
C660        O665   1.372       .  S
C661        C662   1.408       .  A
C661        H666   1.083       .  S
C662        C663   1.412       .  A
C663        C664   1.405       .  A
C663        O667   1.371       .  S
C664        H668   1.083       .  S
O665        H670   0.992   1_556  S
O667        H671   0.992       .  S
C673        C674   1.405       .  A
C673        C678   1.410       .  A
C673        H683   1.083       .  S
C674        C679   1.482       .  S
C674        C675   1.404       .  A
C675        C676   1.396       .  A
C675        O680   1.372       .  S
C676        C677   1.407       .  A
C676        H681   1.084       .  S
C677        C678   1.413       .  A
C678        O682   1.371       .  S
C679        C684   1.406       .  A
C679        C688   1.405       .  A
O680        H696   0.992       .  S
O682        H693   0.991       .  S
C684        C685   1.401       .  A
C684        O689   1.372       .  S
C685        C686   1.404       .  A
C685        H690   1.084       .  S
C686        C687   1.409       .  A
C687        C688   1.405       .  A
C687        O691   1.371       .  S
C688        H692   1.084       .  S
O689        H694   0.992       .  S
O691        H695   0.991       .  S
C697        C698   1.404       .  A
C697        C702   1.408       .  A
C697        H707   1.084   1_655  S
C698        C703   1.489   1_655  S
C698        C699   1.406       .  A
C699        C700   1.403       .  A
C699        O704   1.373       .  S
C700        C701   1.410       .  A
C700        H705   1.083       .  S
C701        C702   1.415       .  A
C702        O706   1.371       .  S
C703        C708   1.407       .  A
C703        C712   1.403       .  A
O704        H720   0.992       .  S
O706        H717   0.991       .  S
C708        C709   1.400       .  A
C708        O713   1.372       .  S
C709        C710   1.409       .  A
C709        H714   1.083       .  S
C710        C711   1.417       .  A
C711        C712   1.408       .  A
C711        O715   1.371       .  S
C712        H716   1.083   1_455  S
O713        H718   0.992       .  S
O715        H719   0.992       .  S
C721        C722   1.404       .  A
C721        C726   1.407       .  A
C721        H731   1.083       .  S
C722        C727   1.482       .  S
C722        C723   1.406       .  A
C723        C724   1.399       .  A
C723        O728   1.372       .  S
C724        C725   1.405       .  A
C724        H729   1.084       .  S
C725        C726   1.411       .  A
C726        O730   1.372       .  S
C727        C732   1.405       .  A
C727        C736   1.404       .  A
O728        H744   0.992       .  S
O730        H741   0.992       .  S
C732        C733   1.398       .  A
C732        O737   1.372       .  S
C733        C734   1.405       .  A
C733        H738   1.084       .  S
C734        C735   1.412       .  A
C735        C736   1.409       .  A
C735        O739   1.372       .  S
C736        H740   1.083       .  S
O737        H742   0.992       .  S
O739        H743   0.992       .  S
C745        C746   1.401       .  A
C745        C750   1.398       .  A
C745        H755   1.084       .  S
C746        C751   1.482       .  S
C746        C747   1.409       .  A
C747        C748   1.407       .  A
C747        O752   1.371       .  S
C748        C749   1.406       .  A
C748        H753   1.083       .  S
C749        C750   1.410       .  A
C750        O754   1.372       .  S
C751        C756   1.408       .  A
C751        C760   1.403       .  A
O752        H768   0.992       .  S
O754        H765   0.992       .  S
C756        C757   1.404       .  A
C756        O761   1.371       .  S
C757        C758   1.405       .  A
C757        H762   1.084       .  S
C758        C759   1.409       .  A
C759        C760   1.401       .  A
C759        O763   1.372       .  S
C760        H764   1.084       .  S
O761        H766   0.992       .  S
O763        H767   0.992       .  S
C769        C770   1.403       .  A
C769        C774   1.395       .  A
C769        H779   1.084       .  S
C770        C775   1.490       .  S
C770        C771   1.411       .  A
C771        C772   1.409       .  A
C771        O776   1.372       .  S
C772        C773   1.407       .  A
C772        H777   1.083       .  S
C773        C774   1.411       .  A
C774        O778   1.372       .  S
C775        C780   1.410       .  A
C775        C784   1.403       .  A
O776        H792   0.992       .  S
O778        H789   0.992       .  S
C780        C781   1.406       .  A
C780        O785   1.371       .  S
C781        C782   1.409       .  A
C781        H786   1.083       .  S
C782        C783   1.414       .  A
C783        C784   1.398       .  A
C783        O787   1.372       .  S
C784        H788   1.084       .  S
O785        H790   0.992       .  S
O787        H791   0.992       .  S
C793        C794   1.397       .  A
C793        C798   1.392       .  A
C793        H803   1.084       .  S
C794        C799   1.480       .  S
C794        C795   1.408       .  A
C795        C796   1.406       .  A
C795        O800   1.371       .  S
C796        C797   1.409       .  A
C796        H801   1.081       .  S
C797        C798   1.419       .  A
C798        O802   1.372       .  S
C799        C804   1.408       .  A
C799        C808   1.402       .  A
O800        H816   0.992       .  S
O802        H813   0.992       .  S
C804        C805   1.399       .  A
C804        O809   1.373       .  S
C805        C806   1.404       .  A
C805        H810   1.084       .  S
C806        C807   1.412       .  A
C807        C808   1.402       .  A
C807        O811   1.372       .  S
C808        H812   1.084       .  S
O809        H814   0.992       .  S
O811        H815   0.992       .  S
C817        C818   1.406       .  A
C817        C822   1.410       .  A
C817        H827   1.083   1_565  S
C818        C823   1.492   1_565  S
C818        C819   1.406       .  A
C819        C820   1.402       .  A
C819        O824   1.373       .  S
C820        C821   1.409       .  A
C820        H825   1.083       .  S
C821        C822   1.415       .  A
C822        O826   1.370       .  S
C823        C828   1.409       .  A
C823        C832   1.404       .  A
O824        H840   0.992       .  S
O826        H837   0.992       .  S
C828        C829   1.403       .  A
C828        O833   1.373       .  S
C829        C830   1.407       .  A
C829        H834   1.083       .  S
C830        C831   1.417       .  A
C831        C832   1.408       .  A
C831        O835   1.371       .  S
C832        H836   1.083   1_545  S
O833        H838   0.992       .  S
O835        H839   0.992       .  S
C841        C842   1.401       .  A
C841        C846   1.394       .  A
C841        H851   1.084       .  S
C842        C847   1.484       .  S
C842        C843   1.410       .  A
C843        C844   1.407       .  A
C843        O848   1.372       .  S
C844        C845   1.407       .  A
C844        H849   1.083       .  S
C845        C846   1.413       .  A
C846        O850   1.372       .  S
C847        C852   1.408       .  A
C847        C856   1.406       .  A
O848        H864   0.992       .  S
O850        H861   0.992       .  S
C852        C853   1.399       .  A
C852        O857   1.371       .  S
C853        C854   1.406       .  A
C853        H858   1.082       .  S
C854        C855   1.410       .  A
C855        C856   1.399       .  A
C855        O859   1.372       .  S
C856        H860   1.084       .  S
O857        H862   0.992       .  S
O859        H863   0.992       .  S
C865        C866   1.402       .  A
C865        C870   1.395       .  A
C865        H875   1.084       .  S
C866        C871   1.486       .  S
C866        C867   1.409       .  A
C867        C868   1.406       .  A
C867        O872   1.372       .  S
C868        C869   1.408       .  A
C868        H873   1.083       .  S
C869        C870   1.413       .  A
C870        O874   1.372       .  S
C871        C876   1.409       .  A
C871        C880   1.404       .  A
O872        H888   0.992       .  S
O874        H885   0.992       .  S
C876        C877   1.401       .  A
C876        O881   1.371       .  S
C877        C878   1.407       .  A
C877        H882   1.084       .  S
C878        C879   1.412       .  A
C879        C880   1.398       .  A
C879        O883   1.372       .  S
C880        H884   1.084       .  S
O881        H886   0.992       .  S
O883        H887   0.992       .  S
C889        C890   1.405       .  A
C889        C894   1.407       .  A
C889        H899   1.083       .  S
C890        C895   1.487       .  S
C890        C891   1.408       .  A
C891        C892   1.400       .  A
C891        O896   1.372       .  S
C892        C893   1.405       .  A
C892        H897   1.084       .  S
C893        C894   1.411       .  A
C894        O898   1.371       .  S
C895        C900   1.408       .  A
C895        C904   1.405       .  A
O896        H912   0.992       .  S
O898        H909   0.992       .  S
C900        C901   1.401       .  A
C900        O905   1.372       .  S
C901        C902   1.403       .  A
C901        H906   1.084       .  S
C902        C903   1.409       .  A
C903        C904   1.407       .  A
C903        O907   1.371       .  S
C904        H908   1.083       .  S
O905        H910   0.992       .  S
O907        H911   0.991       .  S
C913        C914   1.403       .  A
C913        C918   1.401       .  A
C913        H923   1.083       .  S
C914        C919   1.494       .  S
C914        C915   1.411       .  A
C915        C916   1.410       .  A
C915        O920   1.371       .  S
C916        C917   1.407       .  A
C916        H921   1.083       .  S
C917        C918   1.411       .  A
C918        O922   1.372       .  S
C919        C924   1.411       .  A
C919        C928   1.405       .  A
O920        H936   0.992       .  S
O922        H933   0.992       .  S
C924        C925   1.408       .  A
C924        O929   1.372       .  S
C925        C926   1.405       .  A
C925        H930   1.084       .  S
C926        C927   1.409       .  A
C927        C928   1.404       .  A
C927        O931   1.371       .  S
C928        H932   1.083       .  S
O929        H934   0.992       .  S
O931        H935   0.992       .  S
C937        C938   1.401       .  A
C937        C942   1.394       .  A
C937        H947   1.084       .  S
C938        C943   1.486       .  S
C938        C939   1.410       .  A
C939        C940   1.408       .  A
C939        O944   1.373       .  S
C940        C941   1.408       .  A
C940        H945   1.083       .  S
C941        C942   1.414       .  A
C942        O946   1.372       .  S
C943        C948   1.409       .  A
C943        C952   1.405       .  A
O944        H960   0.992       .  S
O946        H957   0.992       .  S
C948        C949   1.400       .  A
C948        O953   1.371       .  S
C949        C950   1.406       .  A
C949        H954   1.084       .  S
C950        C951   1.412       .  A
C951        C952   1.399       .  A
C951        O955   1.372       .  S
C952        H956   1.084       .  S
O953        H958   0.992       .  S
O955        H959   0.992       .  S
C961        C962   1.406       .  A
C961        C966   1.405       .  A
C961        H971   1.083       .  S
C962        C967   1.491       .  S
C962        C963   1.410       .  A
C963        C964   1.400       .  A
C963        O968   1.374       .  S
C964        C965   1.404       .  A
C964        H969   1.084       .  S
C965        C966   1.412       .  A
C966        O970   1.371       .  S
C967        C972   1.411       .  A
C967        C976   1.407       .  A
O968        H984   0.992       .  S
O970        H981   0.992       .  S
C972        C973   1.396   1_455  A
C972        O977   1.372       .  S
C973        C974   1.403       .  A
C973        H978   1.084       .  S
C974        C975   1.411       .  A
C975        C976   1.407   1_655  A
C975        O979   1.371       .  S
C976        H980   1.083       .  S
O977        H982   0.992       .  S
O979        H983   0.992       .  S
C985        C986   1.404       .  A
C985        C990   1.406       .  A
C985        H995   1.083       .  S
C986        C991   1.484       .  S
C986        C987   1.406       .  A
C987        C988   1.399       .  A
C987        O992   1.372       .  S
C988        C989   1.409       .  A
C988        H993   1.083       .  S
C989        C990   1.413       .  A
C990        O994   1.371       .  S
C991        C996   1.409       .  A
C991       C1000   1.402       .  A
O992       H1008   0.992       .  S
O994       H1005   0.992       .  S
C996        C997   1.403       .  A
C996       O1001   1.371       .  S
C997        C998   1.405       .  A
C997       H1002   1.084       .  S
C998        C999   1.412       .  A
C999       C1000   1.402       .  A
C999       O1003   1.371       .  S
C1000      H1004   1.084       .  S
O1001      H1006   0.992       .  S
O1003      H1007   0.991       .  S
C1009      C1010   1.401       .  A
C1009      C1014   1.399       .  A
C1009      H1019   1.084       .  S
C1010      C1015   1.484       .  S
C1010      C1011   1.409       .  A
C1011      C1012   1.402       .  A
C1011      O1016   1.374       .  S
C1012      C1013   1.406       .  A
C1012      H1017   1.084       .  S
C1013      C1014   1.414       .  A
C1014      O1018   1.371       .  S
C1015      C1020   1.408       .  A
C1015      C1024   1.405       .  A
O1016      H1032   0.992       .  S
O1018      H1029   0.992       .  S
C1020      C1021   1.397   1_565  A
C1020      O1025   1.374       .  S
C1021      C1022   1.405       .  A
C1021      H1026   1.084       .  S
C1022      C1023   1.411       .  A
C1023      C1024   1.404   1_545  A
C1023      O1027   1.371       .  S
C1024      H1028   1.083       .  S
O1025      H1030   0.992       .  S
O1027      H1031   0.992       .  S
C1033      C1034   1.403       .  A
C1033      C1038   1.395       .  A
C1033      H1043   1.084       .  S
C1034      C1039   1.487       .  S
C1034      C1035   1.410       .  A
C1035      C1036   1.411       .  A
C1035      O1040   1.371       .  S
C1036      C1037   1.407       .  A
C1036      H1041   1.083       .  S
C1037      C1038   1.409       .  A
C1038      O1042   1.372       .  S
C1039      C1044   1.409       .  A
C1039      C1048   1.400       .  A
O1040      H1056   0.992       .  S
O1042      H1053   0.992       .  S
C1044      C1045   1.412       .  A
C1044      O1049   1.371       .  S
C1045      C1046   1.412       .  A
C1045      H1050   1.083       .  S
C1046      C1047   1.415       .  A
C1047      C1048   1.393       .  A
C1047      O1051   1.372       .  S
C1048      H1052   1.084       .  S
O1049      H1054   0.992       .  S
O1051      H1055   0.992       .  S
C1057      C1058   1.403       .  A
C1057      C1062   1.405       .  A
C1057      H1067   1.084       .  S
C1058      C1063   1.488       .  S
C1058      C1059   1.408       .  A
C1059      C1060   1.404       .  A
C1059      O1064   1.373       .  S
C1060      C1061   1.407       .  A
C1060      H1065   1.084       .  S
C1061      C1062   1.413       .  A
C1062      O1066   1.370       .  S
C1063      C1068   1.407       .  A
C1063      C1072   1.404       .  A
O1064      H1080   0.992       .  S
O1066      H1077   0.992       .  S
C1068      C1069   1.402       .  A
C1068      O1073   1.373       .  S
C1069      C1070   1.407       .  A
C1069      H1074   1.083       .  S
C1070      C1071   1.415       .  A
C1071      C1072   1.406       .  A
C1071      O1075   1.371       .  S
C1072      H1076   1.083       .  S
O1073      H1078   0.992       .  S
O1075      H1079   0.992       .  S
C1081      C1082   1.402       .  A
C1081      C1086   1.395   1_545  A
C1081      H1091   1.084       .  S
C1082      C1087   1.483       .  S
C1082      C1083   1.409       .  A
C1083      C1084   1.406   1_545  A
C1083      O1088   1.372       .  S
C1084      C1085   1.406       .  A
C1084      H1089   1.083       .  S
C1085      C1086   1.411       .  A
C1086      O1090   1.372       .  S
C1087      C1092   1.407       .  A
C1087      C1096   1.402       .  A
O1088      H1104   0.992       .  S
O1090      H1101   0.992       .  S
C1092      C1093   1.402       .  A
C1092      O1097   1.371       .  S
C1093      C1094   1.409       .  A
C1093      H1098   1.083       .  S
C1094      C1095   1.414       .  A
C1095      C1096   1.398       .  A
C1095      O1099   1.372       .  S
C1096      H1100   1.084       .  S
O1097      H1102   0.992       .  S
O1099      H1103   0.992       .  S
C1105      C1106   1.404       .  A
C1105      C1110   1.399       .  A
C1105      H1115   1.084       .  S
C1106      C1111   1.482       .  S
C1106      C1107   1.408       .  A
C1107      C1108   1.402       .  A
C1107      O1112   1.372       .  S
C1108      C1109   1.407       .  A
C1108      H1113   1.084       .  S
C1109      C1110   1.407       .  A
C1110      O1114   1.371       .  S
C1111      C1116   1.407       .  A
C1111      C1120   1.401       .  A
O1112      H1128   0.992       .  S
O1114      H1125   0.992       .  S
C1116      C1117   1.404       .  A
C1116      O1121   1.371       .  S
C1117      C1118   1.410       .  A
C1117      H1122   1.083       .  S
C1118      C1119   1.415       .  A
C1119      C1120   1.397       .  A
C1119      O1123   1.372       .  S
C1120      H1124   1.084       .  S
O1121      H1126   0.992       .  S
O1123      H1127   0.992       .  S
C1129      C1130   1.401       .  A
C1129      C1134   1.396   1_655  A
C1129      H1139   1.084       .  S
C1130      C1135   1.485       .  S
C1130      C1131   1.409       .  A
C1131      C1132   1.407   1_655  A
C1131      O1136   1.372       .  S
C1132      C1133   1.408       .  A
C1132      H1137   1.083       .  S
C1133      C1134   1.415       .  A
C1134      O1138   1.372       .  S
C1135      C1140   1.408       .  A
C1135      C1144   1.405       .  A
O1136      H1152   0.992       .  S
O1138      H1149   0.992       .  S
C1140      C1141   1.402       .  A
C1140      O1145   1.372       .  S
C1141      C1142   1.407       .  A
C1141      H1146   1.083       .  S
C1142      C1143   1.410       .  A
C1143      C1144   1.400       .  A
C1143      O1147   1.371       .  S
C1144      H1148   1.084       .  S
O1145      H1150   0.992       .  S
O1147      H1151   0.992       .  S
C1153      C1154   1.405       .  A
C1153      C1158   1.399       .  A
C1153      H1163   1.084       .  S
C1154      C1159   1.486       .  S
C1154      C1155   1.408       .  A
C1155      C1156   1.403       .  A
C1155      O1160   1.372       .  S
C1156      C1157   1.407       .  A
C1156      H1161   1.084       .  S
C1157      C1158   1.412       .  A
C1158      O1162   1.372       .  S
C1159      C1164   1.409       .  A
C1159      C1168   1.401       .  A
O1160      H1176   0.992       .  S
O1162      H1173   0.992       .  S
C1164      C1165   1.406       .  A
C1164      O1169   1.371       .  S
C1165      C1166   1.409       .  A
C1165      H1170   1.083       .  S
C1166      C1167   1.415       .  A
C1167      C1168   1.395       .  A
C1167      O1171   1.372       .  S
C1168      H1172   1.084       .  S
O1169      H1174   0.992       .  S
O1171      H1175   0.992       .  S
