geometry optimzed in LAMMPS
_audit_creation_date              2020-11-30 
_audit_creation_method            'lammps2cif' 
_symmetry_space_group_name_H-M    'P1' 
_symmetry_Int_Tables_number       1 
_symmetry_cell_setting            triclinic 
loop_ 
_symmetry_equiv_pos_as_xyz 
  x,y,z 
_cell_length_a                    25.35739589895916 
_cell_length_b                    25.781007940174767 
_cell_length_c                    41.04108862409626 
_cell_angle_alpha                 88.95857358823753 
_cell_angle_beta                  91.27216485363343 
_cell_angle_gamma                 89.8321959851294 
loop_ 
_atom_site_label 
_atom_site_type_symbol 
_atom_site_fract_x 
_atom_site_fract_y 
_atom_site_fract_z 
_atom_site_charge 
O1          O  0.65902407  0.83694373  0.40721573    -0.81450
C2          C  0.71987518  0.95737613  0.30320213     0.97900
O3          O  0.69163982  0.97750586  0.32484735    -0.70570
O4          O  0.61415522  0.92152256  0.33045844    -0.74160
Al5        Al  0.66110055  0.94203804  0.36231084     1.48980
C6          C  0.57727112  0.89590819  0.34075684     0.93160
O7          O  0.67964391  0.80445976  0.31702749    -0.80380
O8          O  0.78033028  0.85915569  0.38777866    -0.73940
Al9        Al  0.66751960  0.82400576  0.36304078     1.90120
O10         O  0.76442047  0.82243836  0.32269166    -0.73010
O11         O  0.77770819  0.95785003  0.36657360    -0.72860
O12         O  0.74790919  0.91810533  0.30863650    -0.78520
O13         O  0.70590328  0.96966447  0.39338816    -0.76720
O14         O  0.69736629  0.88532986  0.35744989    -1.12850
O15         O  0.62535046  0.91491942  0.40205364    -0.72050
C16         C  0.63887947  0.87586566  0.42024869     0.98670
C17         C  0.72730438  0.79845958  0.30744475     0.95070
Al18       Al  0.76347047  0.88898763  0.34753034     1.55560
O19         O  0.59022798  0.85127821  0.35353886    -0.76670
C20         C  0.75038038  0.98472159  0.38567707     0.99230
C21         C  0.77797608  0.81079887  0.38949248     0.94110
O22         O  0.73630303  0.78844772  0.37774493    -0.81990
O23         O  0.73200616  0.78277849  0.61196393    -0.81450
C24         C  0.70640755  0.95159640  0.68480589     0.97900
O25         O  0.75150745  0.93366514  0.67828037    -0.70570
O26         O  0.76223362  0.83078898  0.68302999    -0.74160
Al27       Al  0.77230208  0.88330863  0.64863001     1.48980
C28         C  0.72859309  0.79703577  0.69140714     0.93160
O29         O  0.60540962  0.85458821  0.64918572    -0.80380
O30         O  0.68472721  0.91997192  0.57456950    -0.73940
Al31       Al  0.67144326  0.82178044  0.62929404     1.90120
O32         O  0.60873884  0.91567062  0.61389586    -0.73010
O33         O  0.73078495  0.98339287  0.61746610    -0.72860
O34         O  0.66858745  0.95486218  0.66358321    -0.78520
O35         O  0.79906479  0.93414780  0.61828825    -0.76720
O36         O  0.70789213  0.88001124  0.63212458    -1.12850
O37         O  0.79867057  0.83618479  0.62056144    -0.72050
C38         C  0.78082203  0.79476661  0.60965104     0.98670
C39         C  0.58461326  0.89546137  0.63639766     0.95070
Al40       Al  0.67637921  0.93827370  0.61874073     1.55560
O41         O  0.68727454  0.79263311  0.67361153    -0.76670
C42         C  0.77860127  0.97807254  0.61407191     0.99230
C43         C  0.66405885  0.87853353  0.56338190     0.94110
O44         O  0.65188210  0.84042304  0.58278582    -0.81990
O45         O  0.33167475  0.10889337  0.41931195    -0.81450
C46         C  0.33213938  0.99380263  0.31720020     0.97900
O47         O  0.35032533  0.98214146  0.34593029    -0.70570
O48         O  0.38907841  0.03890571  0.39761993    -0.74160
Al49       Al  0.32593952  0.00556827  0.38783527     1.48980
C50         C  0.41520634  0.05303584  0.37434168     0.93160
O51         O  0.31059789  0.14893191  0.32661741    -0.80380
O52         O  0.19707509  0.07958013  0.36885060    -0.73940
Al53       Al  0.32053482  0.11980008  0.37177447     1.90120
O54         O  0.23920786  0.10885221  0.31373474    -0.73010
O55         O  0.21687161  0.98355797  0.35499179    -0.72860
O56         O  0.28795357  0.01677773  0.31164868    -0.78520
O57         O  0.27500551  0.95588405  0.38902545    -0.76720
O58         O  0.29406803  0.05788602  0.36673555    -1.12850
O59         O  0.30183655  0.02941329  0.42770713    -0.72050
C60         C  0.31314683  0.07399556  0.43853440     0.98670
C61         C  0.27036220  0.14484639  0.30786674     0.95070
Al62       Al  0.24080847  0.04785367  0.33994990     1.55560
O63         O  0.39470436  0.09188994  0.35815634    -0.76670
C64         C  0.23267794  0.94938076  0.37460638     0.99230
C65         C  0.20593277  0.11901919  0.38625051     0.94110
O66         O  0.25013490  0.14400351  0.38514042    -0.81990
O67         O  0.26200662  0.14109424  0.63607299    -0.81450
C68         C  0.35233807  0.99219410  0.69905231     0.97900
O69         O  0.30303899  0.00263125  0.70289092    -0.70570
O70         O  0.24906025  0.09294823  0.70261224    -0.74160
Al71       Al  0.25331561  0.03627845  0.67345023     1.48980
C72         C  0.27624701  0.13121991  0.71075402     0.93160
O73         O  0.40841089  0.09236795  0.66083229    -0.80380
O74         O  0.31354875  0.02859582  0.59083739    -0.73940
Al75       Al  0.33045484  0.11734334  0.64804753     1.90120
O76         O  0.40036995  0.04759284  0.61887145    -0.73010
O77         O  0.30259996  0.94858276  0.63088562    -0.72860
O78         O  0.37364942  0.98705991  0.67135492    -0.78520
O79         O  0.23180132  0.97337505  0.65275662    -0.76720
O80         O  0.30720637  0.05361392  0.65046733    -1.12850
O81         O  0.20873971  0.07294670  0.64358038    -0.72050
C82         C  0.21801063  0.11807589  0.63160442     0.98670
C83         C  0.42979864  0.06003799  0.64136241     0.95070
Al84       Al  0.34394001  0.00639477  0.63013491     1.55560
O85         O  0.31786210  0.14008587  0.69431408    -0.76670
C86         C  0.25676684  0.93938149  0.63817444     0.99230
C87         C  0.31945275  0.07490837  0.58005217     0.94110
O88         O  0.33637833  0.11105691  0.59921007    -0.81990
O89         O  0.71168874  0.15619704  0.88951906    -0.81450
C90         C  0.67612725  0.99214267  0.81765751     0.97900
O91         O  0.72275800  0.00375668  0.82731292    -0.70570
O92         O  0.75038177  0.10174817  0.82446149    -0.74160
Al93       Al  0.74661222  0.05031697  0.85880343     1.48980
C94         C  0.72426755  0.13969836  0.81267041     0.93160
O95         O  0.58472747  0.09431953  0.84420149    -0.80380
O96         O  0.65173658  0.02605172  0.92457779    -0.73940
Al97       Al  0.65158889  0.12273083  0.86804145     1.90120
O98         O  0.57846557  0.03812770  0.88238396    -0.73010
O99         O  0.69163107  0.95358241  0.88519515    -0.72860
O100        O  0.63612774  0.99169625  0.83602289    -0.78520
O101        O  0.76130563  0.99867225  0.89240611    -0.76720
O102        O  0.68171415  0.06132846  0.86922527    -1.12850
O103        O  0.77309026  0.09555091  0.88817214    -0.72050
C104        C  0.75786766  0.13931938  0.89689677     0.98670
C105        C  0.55902271  0.05679028  0.85714563     0.95070
Al106      Al  0.64301428  0.00708046  0.88093000     1.55560
O107        O  0.67867912  0.14813031  0.82450655    -0.76670
C108        C  0.73809697  0.95599429  0.89460491     0.99230
C109        C  0.63627073  0.07046854  0.93412652     0.94110
O110        O  0.62647460  0.10850965  0.91363541    -0.81990
O111        O  0.65736947  0.10327240  0.09275209    -0.81450
C112        C  0.77377707  0.97853609  0.17574481     0.97900
O113        O  0.75021466  0.95794742  0.15141492    -0.70570
O114        O  0.65626049  0.98446294  0.15089324    -0.74160
Al115      Al  0.70507732  0.99246753  0.11882079     1.48980
C116        C  0.61566170  0.01064950  0.15329663     0.93160
O117        O  0.70631646  0.11546778  0.18333997    -0.80380
O118        O  0.79176350  0.10829854  0.10020538    -0.73940
Al119      Al  0.68124057  0.10556901  0.13684504     1.90120
O120        O  0.78794435  0.12146363  0.16736254    -0.73010
O121        O  0.82171809  0.00931297  0.11084813    -0.72860
O122        O  0.79632907  0.02181430  0.17302742    -0.78520
O123        O  0.75190998  0.99067908  0.08391576    -0.76720
O124        O  0.72599611  0.05379426  0.13134203    -1.12850
O125        O  0.65625258  0.01896782  0.08585621    -0.72050
C126        C  0.64841614  0.06479553  0.07484025     0.98670
C127        C  0.75458840  0.12845166  0.18947839     0.95070
Al128      Al  0.79440896  0.06478507  0.13680380     1.55560
O129        O  0.61957765  0.06014375  0.14998143    -0.76670
C130        C  0.79805300  0.97910305  0.09182779     0.99230
C131        C  0.77378272  0.15309331  0.10494230     0.94110
O132        O  0.73157341  0.15880747  0.12129303    -0.81990
O133        O  0.25815771  0.78931754  0.87818545    -0.81450
C134        C  0.33902645  0.95200994  0.81885261     0.97900
O135        O  0.29685173  0.92905748  0.80971795    -0.70570
O136        O  0.25235765  0.83593246  0.80537586    -0.74160
Al137      Al  0.24854496  0.89167295  0.83434852     1.48980
C138        C  0.27833796  0.79553231  0.80128306     0.93160
O139        O  0.40087544  0.84891964  0.85419410    -0.80380
O140        O  0.30140743  0.89528370  0.92504920    -0.73940
Al141      Al  0.32760433  0.81590056  0.86635316     1.90120
O142        O  0.39119554  0.89488281  0.89571978    -0.73010
O143        O  0.27127866  0.97306109  0.89066616    -0.72860
O144        O  0.35138045  0.96102003  0.84860063    -0.78520
O145        O  0.21946256  0.95190209  0.85190135    -0.76720
O146        O  0.29895678  0.87798916  0.86276424    -1.12850
O147        O  0.20366302  0.85286980  0.85969133    -0.72050
C148        C  0.21242430  0.81169711  0.87657396     0.98670
C149        C  0.41831055  0.88655934  0.87194057     0.95070
Al150      Al  0.32604660  0.92749547  0.88747981     1.55560
O151        O  0.31723145  0.78755111  0.82089360    -0.76670
C152        C  0.22990315  0.98062892  0.87519850     0.99230
C153        C  0.31924207  0.85161449  0.93458555     0.94110
O154        O  0.33950539  0.82040896  0.91432440    -0.81990
O155        O  0.34744223  0.82498953  0.09512603    -0.81450
C156        C  0.31409089  0.94142308  0.19447892     0.97900
O157        O  0.32117837  0.96312273  0.16637228    -0.70570
O158        O  0.38801676  0.91951035  0.12748984    -0.74160
Al159      Al  0.31723119  0.93096157  0.12330204     1.48980
C160        C  0.41509210  0.89416914  0.14755824     0.93160
O161        O  0.31783311  0.78967701  0.18646238    -0.80380
O162        O  0.20207101  0.84621577  0.13023698    -0.73940
Al163      Al  0.32991819  0.81569009  0.14089996     1.90120
O164        O  0.23622799  0.81206717  0.18779366    -0.73010
O165        O  0.21306345  0.94621405  0.15397727    -0.72860
O166        O  0.27948231  0.90613935  0.19880295    -0.78520
O167        O  0.25138943  0.95628714  0.10922367    -0.76720
O168        O  0.29537303  0.87396895  0.14266588    -1.12850
O169        O  0.31666672  0.90279345  0.08263330    -0.72050
C170        C  0.33223167  0.85897407  0.07417240     0.98670
C171        C  0.27297782  0.78489416  0.19946841     0.95070
Al172      Al  0.23790855  0.87752621  0.16534461     1.55560
O173        O  0.39810477  0.84944536  0.15721474    -0.76670
C174        C  0.21867146  0.97228510  0.12829611     0.99870
C175        C  0.21637231  0.80176875  0.11963573     0.94110
O176        O  0.26343579  0.78278809  0.12468725    -0.81990
O177        O  0.13133711  0.62914259  0.41324305    -0.81450
C178        C  0.99460486  0.64365954  0.30781787     0.97900
O179        O  0.97808401  0.62681598  0.33474012    -0.70570
O180        O  0.04562319  0.55824544  0.34735389    -0.74160
Al181      Al  0.02269661  0.61124728  0.37206337     1.48980
C182        C  0.08388877  0.53082180  0.35572900     0.93160
O183        O  0.16620990  0.63369023  0.32164929    -0.80380
O184        O  0.09034023  0.74439238  0.37156255    -0.73940
Al185      Al  0.14339637  0.63047084  0.36802580     1.90120
O186        O  0.12937234  0.70952597  0.31367828    -0.73010
O187        O  0.99492257  0.71947837  0.35620997    -0.72860
O188        O  0.03794724  0.66672638  0.30531923    -0.78520
O189        O  0.99238646  0.66389279  0.39692403    -0.76720
O190        O  0.07710874  0.64911286  0.35981340    -1.12850
O191        O  0.05615294  0.58770567  0.41178783    -0.72050
C192        C  0.09506758  0.60549001  0.42774059     0.98670
C193        C  0.16496107  0.67743532  0.30631783     0.95070
Al194      Al  0.06387727  0.70546208  0.33817035     1.55560
O195        O  0.12719857  0.55248643  0.36534607    -0.76670
C196        C  0.97410792  0.70343496  0.38233002     0.99230
C197        C  0.13921625  0.74560401  0.37609262     0.94110
O198        O  0.16726087  0.70409066  0.37396256    -0.81990
O199        O  0.18567400  0.70025767  0.61746744    -0.81450
C200        C  0.02161369  0.65693374  0.68633915     0.97900
O201        O  0.05649935  0.69082066  0.68429499    -0.70570
O202        O  0.14855440  0.72166521  0.67285805    -0.74160
Al203      Al  0.08239715  0.71743385  0.64707395     1.48980
C204        C  0.17576888  0.68662266  0.68771792     0.93160
O205        O  0.13480927  0.55151746  0.63286513    -0.80380
O206        O  0.06536538  0.58824066  0.58623956    -0.73940
Al207      Al  0.15615410  0.63036965  0.62781920     1.90120
O208        O  0.06177477  0.56878805  0.65459560    -0.73010
O209        O  0.00217259  0.66332078  0.59583714    -0.72860
O210        O  0.00042245  0.63686773  0.66173169    -0.78520
O211        O  0.01081342  0.72888092  0.62792650    -0.76720
O212        O  0.09161005  0.65510359  0.63276365    -1.12850
O213        O  0.11180223  0.74376234  0.60922741    -0.72050
C214        C  0.16146461  0.74236701  0.60863352     0.98670
C215        C  0.09006628  0.53541528  0.64338786     0.95070
Al216      Al  0.03638772  0.61644464  0.62496826     1.55560
O217        O  0.17619815  0.64053486  0.67548688    -0.76670
C218        C  0.98395095  0.70433980  0.60673155     0.99230
C219        C  0.10392438  0.60291488  0.56927091     0.94110
O220        O  0.14323006  0.62465575  0.58258160    -0.81990
O221        O  0.86780447  0.29568141  0.41206979    -0.81450
C222        C  0.01832173  0.21488796  0.33345168     0.97900
O223        O  0.03206542  0.23822208  0.35912417    -0.70570
O224        O  0.98263569  0.32207771  0.35246622    -0.74160
Al225      Al  0.98553493  0.27556210  0.38683368     1.48980
C226        C  0.95026820  0.35822537  0.35125278     0.93160
O227        O  0.85772078  0.26054424  0.32093096    -0.80380
O228        O  0.88571115  0.16509508  0.39892402    -0.73940
Al229      Al  0.86719689  0.27929618  0.36758956     1.90120
O230        O  0.87278894  0.17816203  0.33208344    -0.73010
O231        O  0.98888267  0.16105453  0.39397925    -0.72860
O232        O  0.97540129  0.19018842  0.33151037    -0.78520
O233        O  0.99556548  0.23026381  0.42288867    -0.76720
O234        O  0.92766894  0.24471320  0.37274090    -1.12850
O235        O  0.95004951  0.31868600  0.41699842    -0.72050
C236        C  0.90565361  0.31098012  0.42968521     0.98670
C237        C  0.85326969  0.21278799  0.31281420     0.95070
Al238      Al  0.93021611  0.17821589  0.36495061     1.55560
O239        O  0.90153156  0.34847457  0.35645598    -0.76670
C240        C  0.01105546  0.18547661  0.41694206     0.99230
C241        C  0.83801982  0.17839513  0.39694345     0.94110
O242        O  0.82411937  0.21961545  0.38104852    -0.81990
O243        O  0.82883213  0.22518405  0.63026251    -0.81450
C244        C  0.98486130  0.31798553  0.69026207     0.97900
O245        O  0.97887275  0.26905675  0.69400635    -0.70570
O246        O  0.88483121  0.22564248  0.69933607    -0.74160
Al247      Al  0.93908329  0.22315509  0.66826615     1.48980
C248        C  0.84297961  0.24967608  0.70471679     0.93160
O249        O  0.87935234  0.37369240  0.64930630    -0.80380
O250        O  0.94870961  0.28021759  0.58351775    -0.73940
Al251      Al  0.85456932  0.29652568  0.63844058     1.90120
O252        O  0.92787862  0.36876520  0.60881397    -0.73010
O253        O  0.02694998  0.27136953  0.62672057    -0.72860
O254        O  0.98655062  0.34130044  0.66280313    -0.78520
O255        O  0.99611360  0.19940660  0.64384654    -0.76720
O256        O  0.91997199  0.27507778  0.64315277    -1.12850
O257        O  0.90029997  0.17894228  0.64413178    -0.72050
C258        C  0.85300001  0.18151099  0.63448423     0.98670
C259        C  0.91398005  0.39608482  0.63119112     0.95070
Al260      Al  0.96873596  0.31159272  0.62260834     1.55560
O261        O  0.83000664  0.28624285  0.68456703    -0.76670
C262        C  0.03183185  0.22433964  0.63058247     0.99230
C263        C  0.90345253  0.29145115  0.57124479     0.94110
O264        O  0.86434292  0.30333401  0.58962681    -0.81990
O265        O  0.80550786  0.70929853  0.87823395    -0.81450
C266        C  0.97349573  0.66174077  0.81866765     0.97900
O267        O  0.96453900  0.70839612  0.82678182    -0.70570
O268        O  0.85997655  0.73387336  0.82253080    -0.74160
Al269      Al  0.91735865  0.73317004  0.85707567     1.48980
C270        C  0.83004089  0.70037383  0.80894603     0.93160
O271        O  0.87568801  0.56954002  0.85482048    -0.80380
O272        O  0.93884772  0.65384921  0.92622981    -0.73940
Al273      Al  0.84399454  0.64206547  0.86812166     1.90120
O274        O  0.92582146  0.57460056  0.89553734    -0.73010
O275        O  0.01515836  0.68027565  0.88246488    -0.72860
O276        O  0.97306337  0.62268658  0.83919719    -0.78520
O277        O  0.97259161  0.75015776  0.88863122    -0.76720
O278        O  0.90615094  0.67092435  0.86943640    -1.12850
O279        O  0.87462020  0.75789903  0.88783477    -0.72050
C280        C  0.82598459  0.75320820  0.88598526     0.98670
C281        C  0.91215756  0.54825983  0.87275786     0.95070
Al282      Al  0.95955047  0.63516627  0.88450975     1.55560
O283        O  0.82880965  0.65487628  0.82151266    -0.76670
C284        C  0.01484558  0.72517444  0.89199844     0.99230
C285        C  0.89095313  0.64623515  0.93516971     0.94110
O286        O  0.85307715  0.63198342  0.91558083    -0.81990
O287        O  0.86223495  0.65242450  0.09109551    -0.81450
C288        C  0.99024809  0.70393078  0.19123687     0.97900
O289        O  0.01197381  0.68986295  0.16466994    -0.70570
O290        O  0.97599506  0.61174230  0.13341675    -0.74160
Al291      Al  0.97654728  0.67926334  0.12176142     1.48980
C292        C  0.94283910  0.57761929  0.13869203     0.93160
O293        O  0.84165519  0.66436087  0.18318797    -0.80380
O294        O  0.88093153  0.78308780  0.12142964    -0.73940
Al295      Al  0.85776812  0.66014517  0.13593248     1.90120
O296        O  0.84934338  0.74811624  0.18164928    -0.73010
O297        O  0.98241004  0.78785884  0.14579649    -0.72860
O298        O  0.94765757  0.72917531  0.19155066    -0.78520
O299        O  0.98804192  0.74504162  0.10263030    -0.76720
O300        O  0.91650180  0.69659727  0.13887084    -1.12850
O301        O  0.94643825  0.66514409  0.08080161    -0.72050
C302        C  0.89951902  0.65651941  0.07166043     0.98670
C303        C  0.82972008  0.70830148  0.19486921     0.95070
Al304      Al  0.91472330  0.75720409  0.15802852     1.55560
O305        O  0.89427182  0.59013600  0.14324972    -0.76670
C306        C  0.00758116  0.77784090  0.12080856     0.99230
C307        C  0.83288178  0.77157869  0.11727854     0.94110
O308        O  0.81527149  0.72572216  0.12471408    -0.81990
O309        O  0.14659158  0.21164141  0.88762892    -0.81450
C310        C  0.99300883  0.28659023  0.81182550     0.97900
O311        O  0.02569622  0.24993889  0.81021958    -0.70570
O312        O  0.11654289  0.20421613  0.82477165    -0.74160
Al313      Al  0.04724450  0.21202602  0.84669597     1.48980
C314        C  0.15433498  0.23469936  0.81752345     0.93160
O315        O  0.11198769  0.36665719  0.87240248    -0.80380
O316        O  0.03630907  0.33479455  0.91771883    -0.73940
Al317      Al  0.12666673  0.28615360  0.87820479     1.90120
O318        O  0.03318901  0.36129093  0.85111655    -0.73010
O319        O  0.97626509  0.25919722  0.90214248    -0.72860
O320        O  0.96846771  0.29469625  0.83773525    -0.78520
O321        O  0.97467206  0.20327173  0.86276585    -0.76720
O322        O  0.06136060  0.26956349  0.86717378    -1.12850
O323        O  0.06854832  0.17464035  0.88332826    -0.72050
C324        C  0.11684506  0.17122092  0.88977641     0.98670
C325        C  0.06924749  0.38905760  0.86079258     0.95070
Al326      Al  0.00776130  0.30987743  0.87663690     1.55560
O327        O  0.15656057  0.27798089  0.83284895    -0.76670
C328        C  0.95442493  0.22226210  0.88808918     0.99230
C329        C  0.07283832  0.31641951  0.93604896     0.94110
O330        O  0.10939665  0.29037122  0.92357883    -0.81990
O331        O  0.11994893  0.30418875  0.09018627    -0.81450
C332        C  0.02281535  0.26989814  0.20727203     0.97900
O333        O  0.00093049  0.30297802  0.18798274    -0.70570
O334        O  0.06564869  0.36833381  0.16920996    -0.74160
Al335      Al  0.02683184  0.32286584  0.14457346     1.48980
C336        C  0.08753361  0.40065733  0.15198506     0.93160
O337        O  0.17398326  0.29801139  0.17922453    -0.80380
O338        O  0.09633630  0.19168050  0.12127043    -0.73940
Al339      Al  0.14432940  0.30245799  0.13352059     1.90120
O340        O  0.14386557  0.21805021  0.18299643    -0.73010
O341        O  0.00225142  0.20653360  0.14447052    -0.72860
O342        O  0.05486809  0.23799110  0.19778618    -0.78520
O343        O  0.98085254  0.28119838  0.12206974    -0.76720
O344        O  0.08077334  0.28073588  0.14570886    -1.12850
O345        O  0.04562162  0.34695157  0.09898730    -0.72050
C346        C  0.07995092  0.32894078  0.07920656     0.98670
C347        C  0.17565970  0.25285574  0.19322493     0.95070
Al348      Al  0.07414229  0.21830365  0.16007539     1.55560
O349        O  0.12578729  0.38232708  0.13549712    -0.76670
C350        C  0.97023456  0.23516519  0.12836167     0.99230
C351        C  0.14525671  0.18721923  0.12132384     0.94110
O352        O  0.17314026  0.22853943  0.12573566    -0.81990
C353        C  0.07307345  0.32581847  0.97245272    -0.04990
C354        C  0.12100805  0.33539354  0.98958958    -0.02110
C355        C  0.12216838  0.34079862  0.02393676     0.02880
C356        C  0.07554124  0.33552807  0.04241056    -0.04990
C357        C  0.02711333  0.32921187  0.02512787    -0.02090
C358        C  0.02581288  0.32465911  0.99053535     0.02880
C359        C  0.16960719  0.34092078  0.97181739     0.37530
C360        C  0.97848775  0.32500728  0.04287453     0.37520
C361        C  0.97553085  0.31631897  0.97398093     0.35940
C362        C  0.17207180  0.35252342  0.04018338     0.35940
N363        N  0.93500311  0.30985667  0.96119581    -0.38880
N364        N  0.21189435  0.36187008  0.05306445    -0.38880
N365        N  0.93931972  0.32181685  0.05670479    -0.38320
N366        N  0.20834695  0.34535956  0.95765340    -0.38320
C367        C  0.96756280  0.52399614  0.13866669    -0.04990
C368        C  0.00131489  0.51092675  0.11243992    -0.02110
C369        C  0.04414923  0.47468139  0.11661347     0.02880
C370        C  0.05600447  0.45174527  0.14746677    -0.04990
C371        C  0.02249952  0.46664842  0.17332483    -0.02090
C372        C  0.97684623  0.49822171  0.16838177     0.02880
C373        C  0.99211465  0.53552234  0.08077711     0.37530
C374        C  0.03863446  0.45537011  0.20630135     0.37520
C375        C  0.93981244  0.50591335  0.19425903     0.35940
C376        C  0.07689211  0.46275424  0.08931485     0.35940
N377        N  0.90872455  0.51159919  0.21411100    -0.38880
N378        N  0.10318357  0.45407722  0.06737283    -0.38880
N379        N  0.05164326  0.45011148  0.23317489    -0.38320
N380        N  0.98512639  0.55486276  0.05537848    -0.38320
C381        C  0.95003773  0.50265272  0.86762656    -0.04990
C382        C  0.97917899  0.48265214  0.89564311    -0.02110
C383        C  0.02965367  0.45860831  0.89308513     0.02880
C384        C  0.04942591  0.44459136  0.86276475    -0.04990
C385        C  0.02094812  0.46535537  0.83497385    -0.02090
C386        C  0.97235014  0.49349228  0.83719695     0.02880
C387        C  0.95765723  0.48687643  0.92795825     0.37530
C388        C  0.04318856  0.45972016  0.80350239     0.37520
C389        C  0.94563876  0.51356941  0.80805042     0.35940
C390        C  0.06181646  0.44814038  0.92205941     0.35940
N391        N  0.92405492  0.52962909  0.78485683    -0.38880
N392        N  0.08786933  0.44125655  0.94523897    -0.38880
N393        N  0.06065786  0.45810248  0.77789566    -0.38320
N394        N  0.94148559  0.48969188  0.95400486    -0.38320
C395        C  0.88738532  0.65569417  0.03703731    -0.04990
C396        C  0.89655101  0.70098537  0.01850000    -0.02110
C397        C  0.89423691  0.69891124  0.98458464     0.02880
C398        C  0.88035752  0.65205556  0.96954759    -0.04990
C399        C  0.86305140  0.60919396  0.98823072    -0.02090
C400        C  0.86750080  0.61070615  0.02233112     0.02880
C401        C  0.90747759  0.74981462  0.03441922     0.37530
C402        C  0.84304932  0.56310025  0.97249163     0.37520
C403        C  0.85416844  0.56559717  0.04209426     0.35940
C404        C  0.90689930  0.74487685  0.96543616     0.35940
N405        N  0.84363789  0.52966438  0.05793402    -0.38880
N406        N  0.91724840  0.78235388  0.95106754    -0.38880
N407        N  0.82650019  0.52657910  0.95991274    -0.38320
N408        N  0.91514236  0.78887408  0.04710398    -0.38320
C409        C  0.98755722  0.34729230  0.71956754    -0.04990
C410        C  0.03624054  0.34599449  0.73582142    -0.02110
C411        C  0.03703526  0.33705545  0.76921294     0.02880
C412        C  0.98990079  0.32327261  0.78476881    -0.04990
C413        C  0.94131387  0.33603232  0.77023849    -0.02090
C414        C  0.94040626  0.35066288  0.73738449     0.02880
C415        C  0.08467951  0.34356685  0.71765539     0.37530
C416        C  0.89255489  0.32904628  0.78761962     0.37520
C417        C  0.89042108  0.36517399  0.72223007     0.35940
C418        C  0.08516386  0.34608784  0.78735143     0.35940
N419        N  0.84945617  0.37951666  0.71282383    -0.38880
N420        N  0.12323114  0.35967967  0.80053667    -0.38880
N421        N  0.85318080  0.32333760  0.80091910    -0.38320
N422        N  0.12276425  0.34116564  0.70273637    -0.38320
C423        C  0.01592530  0.26288459  0.24214210    -0.04990
C424        C  0.05018858  0.29155535  0.26283156    -0.02110
C425        C  0.06175947  0.27315635  0.29465721     0.02880
C426        C  0.04698542  0.22243860  0.30338848    -0.04990
C427        C  0.03134891  0.18917602  0.27876028    -0.02090
C428        C  0.00546580  0.21036022  0.25124162     0.02880
C429        C  0.08239443  0.33239766  0.24933445     0.37530
C430        C  0.03985353  0.13392450  0.28333811     0.37520
C431        C  0.98176431  0.17544382  0.22786294     0.35940
C432        C  0.09167619  0.30436423  0.31745455     0.35940
N433        N  0.96601233  0.14845213  0.20776325    -0.38880
N434        N  0.11564916  0.32919393  0.33569524    -0.38880
N435        N  0.04776775  0.08994253  0.28698226    -0.38320
N436        N  0.10995949  0.36267230  0.23765668    -0.38320
C437        C  0.89958124  0.31465043  0.46596371    -0.04990
C438        C  0.94014584  0.33641405  0.48569258    -0.02110
C439        C  0.94019518  0.32992972  0.51984408     0.02880
C440        C  0.90052553  0.30022607  0.53521570    -0.04990
C441        C  0.86045992  0.27832921  0.51579910    -0.02090
C442        C  0.85801299  0.28779669  0.48179798     0.02880
C443        C  0.98390190  0.36401410  0.47143211     0.37530
C444        C  0.82676797  0.23904624  0.52946667     0.37520
C445        C  0.81330164  0.26708456  0.46356430     0.35940
C446        C  0.98376277  0.35173115  0.53864228     0.35940
N447        N  0.77710558  0.25062084  0.44958041    -0.38880
N448        N  0.01962654  0.36864665  0.55271645    -0.38880
N449        N  0.80070780  0.20524350  0.53828463    -0.38320
N450        N  0.01990662  0.38540296  0.46093542    -0.38320
C451        C  0.00104039  0.64829944  0.71784707    -0.04990
C452        C  0.96791680  0.68755398  0.72810707    -0.02110
C453        C  0.95830484  0.69155579  0.76096792     0.02880
C454        C  0.98220263  0.65554614  0.78394308    -0.04990
C455        C  0.01907263  0.61895893  0.77350465    -0.02090
C456        C  0.02913235  0.61586794  0.74023235     0.02880
C457        C  0.95719242  0.73224105  0.70628554     0.37530
C458        C  0.05350841  0.59220536  0.79709780     0.37520
C459        C  0.07587086  0.58852820  0.73002401     0.35940
C460        C  0.93112453  0.73876760  0.76961491     0.35940
N461        N  0.11486525  0.56925536  0.72246066    -0.38880
N462        N  0.91154510  0.77880854  0.77303609    -0.38880
N463        N  0.08175707  0.57241093  0.81608258    -0.38320
N464        N  0.95441660  0.76866411  0.68944044    -0.38320
C465        C  0.95185142  0.44294173  0.63641196    -0.04990
C466        C  0.97957542  0.45151877  0.66625451    -0.02110
C467        C  0.03412011  0.46629512  0.66682329     0.02880
C468        C  0.06052230  0.48422854  0.63885624    -0.04990
C469        C  0.03298641  0.47664298  0.60905037    -0.02090
C470        C  0.97890337  0.46063962  0.60798665     0.02880
C471        C  0.94995377  0.46034231  0.69512374     0.37530
C472        C  0.06208986  0.48010812  0.57921982     0.37520
C473        C  0.95021913  0.46284339  0.57702142     0.35940
C474        C  0.06571715  0.46376562  0.69629609     0.35940
N475        N  0.92707593  0.46501924  0.55240786    -0.38880
N476        N  0.09602771  0.46089377  0.71765660    -0.38880
N477        N  0.08533485  0.48108978  0.55527256    -0.38320
N478        N  0.92759530  0.47159186  0.71824148    -0.38320
C479        C  0.00820757  0.68785442  0.22371535    -0.04990
C480        C  0.98734248  0.71960961  0.24834267    -0.02110
C481        C  0.95327517  0.69684974  0.27063913     0.02880
C482        C  0.96278675  0.64469917  0.27876149    -0.04990
C483        C  0.98437311  0.61193611  0.25567522    -0.02090
C484        C  0.01063349  0.63384380  0.22896814     0.02880
C485        C  0.99074022  0.77583376  0.24606262     0.37530
C486        C  0.98763685  0.55741549  0.26376751     0.37520
C487        C  0.04098269  0.60218416  0.20745914     0.35940
C488        C  0.92405842  0.72913460  0.29265791     0.35940
N489        N  0.06665856  0.57812339  0.19030526    -0.38880
N490        N  0.90174725  0.75573777  0.31014170    -0.38880
N491        N  0.98836715  0.51428342  0.27179491    -0.38320
N492        N  0.99267388  0.82065011  0.24440954    -0.38320
C493        C  0.06864294  0.47476642  0.35781170    -0.04990
C494        C  0.03550613  0.46208578  0.38411575    -0.02110
C495        C  0.98735742  0.43503357  0.37911639     0.02880
C496        C  0.97600261  0.41056179  0.34937503    -0.04990
C497        C  0.01092998  0.41975473  0.32355770    -0.02090
C498        C  0.05722011  0.45057663  0.32790853     0.02880
C499        C  0.05123012  0.47709361  0.41664877     0.37530
C500        C  0.99536109  0.39990427  0.29211404     0.37520
C501        C  0.09477930  0.45772680  0.30228537     0.35940
C502        C  0.94782682  0.43481813  0.40401011     0.35940
N503        N  0.12710072  0.46415970  0.28317519    -0.38880
N504        N  0.91550600  0.43616029  0.42345186    -0.38880
N505        N  0.97875067  0.38462825  0.26763162    -0.38320
N506        N  0.06412565  0.48740827  0.44295535    -0.38320
C507        C  0.09749031  0.59919117  0.46391653    -0.04990
C508        C  0.05047943  0.59908998  0.48191853    -0.02110
C509        C  0.05250232  0.59688350  0.51616281     0.02880
C510        C  0.10177964  0.59639878  0.53321652    -0.04990
C511        C  0.14872105  0.59317750  0.51524701    -0.02090
C512        C  0.14657592  0.59448007  0.48085290     0.02880
C513        C  0.99907540  0.60312654  0.46579969     0.37530
C514        C  0.19950909  0.58706296  0.53194402     0.37520
C515        C  0.19517763  0.58988050  0.46305750     0.35940
C516        C  0.00285687  0.59622893  0.53324510     0.35940
N517        N  0.23396797  0.58623655  0.44892030    -0.38880
N518        N  0.96258857  0.59514478  0.54598573    -0.38880
N519        N  0.24003594  0.58214629  0.54518750    -0.38320
N520        N  0.95722075  0.60595902  0.45414034    -0.38320
C521        C  0.20618369  0.69649277  0.28170646    -0.04990
C522        C  0.22088962  0.67066983  0.25292781    -0.02110
C523        C  0.25183667  0.69698117  0.22849347     0.02880
C524        C  0.26063666  0.75148122  0.22963822    -0.04990
C525        C  0.24707642  0.77582833  0.25891702    -0.02090
C526        C  0.22734761  0.74676543  0.28558093     0.02880
C527        C  0.20408058  0.61777071  0.24825946     0.37530
C528        C  0.25124976  0.83150410  0.26209039     0.37520
C529        C  0.24061218  0.76420282  0.31787520     0.35940
C530        C  0.27555097  0.66816088  0.20270006     0.35940
N531        N  0.25694209  0.77756991  0.34283742    -0.38880
N532        N  0.29524470  0.64521027  0.18223633    -0.38880
N533        N  0.25224901  0.87592974  0.26551920    -0.38320
N534        N  0.19043196  0.57546123  0.24449631    -0.38320
C535        C  0.06457979  0.78928479  0.11769782    -0.04990
C536        C  0.08633017  0.79632059  0.08636412    -0.02110
C537        C  0.14094903  0.78717428  0.08194871     0.02880
C538        C  0.17290179  0.76850825  0.10816073    -0.04990
C539        C  0.14672513  0.74871837  0.13502641    -0.02090
C540        C  0.09811369  0.76962127  0.14282698     0.02880
C541        C  0.05317626  0.81348374  0.05905391     0.37530
C542        C  0.16656077  0.70358549  0.15245196     0.37520
C543        C  0.08731277  0.77564636  0.17682536     0.35940
C544        C  0.16203089  0.78610040  0.04960494     0.35940
N545        N  0.08312262  0.78168955  0.20446516    -0.38880
N546        N  0.17759560  0.78332248  0.02340242    -0.38880
N547        N  0.17864135  0.66504245  0.16537928    -0.38320
N548        N  0.02722751  0.82760388  0.03708485    -0.38320
C549        C  0.16602042  0.13221560  0.12281208    -0.04990
C550        C  0.15050172  0.09683806  0.14838363    -0.02110
C551        C  0.15977695  0.04335957  0.14642700     0.02880
C552        C  0.19284588  0.02418137  0.12252170    -0.04990
C553        C  0.20719583  0.05815448  0.09631971    -0.02090
C554        C  0.19284201  0.11150177  0.09629395     0.02880
C555        C  0.13019633  0.11265550  0.17939397     0.37530
C556        C  0.23512310  0.03849882  0.06864360     0.37520
C557        C  0.20548262  0.14511926  0.06887838     0.35940
C558        C  0.13534148  0.00821963  0.16992202     0.35940
N559        N  0.21537058  0.17196309  0.04696316    -0.38880
N560        N  0.11584118  0.98079645  0.18874672    -0.38880
N561        N  0.25709240  0.02289062  0.04640548    -0.38320
N562        N  0.11509346  0.12031820  0.20532644    -0.38320
C563        C  0.20453243  0.70337391  0.71981190    -0.04990
C564        C  0.26050897  0.70368580  0.72451160    -0.02110
C565        C  0.28598096  0.73042592  0.75150740     0.02880
C566        C  0.25622783  0.75786169  0.77487977    -0.04990
C567        C  0.20039844  0.75297348  0.77151575    -0.02090
C568        C  0.17553458  0.72860595  0.74426627     0.02880
C569        C  0.29230877  0.67886543  0.70043768     0.37530
C570        C  0.16658058  0.77291630  0.79661049     0.37520
C571        C  0.11876558  0.73282388  0.74151877     0.35940
C572        C  0.34281899  0.72973758  0.75463128     0.35940
N573        N  0.07377795  0.73994048  0.74166392    -0.38880
N574        N  0.38837259  0.72782509  0.75668796    -0.38880
N575        N  0.13794714  0.78817864  0.81582043    -0.38320
N576        N  0.31770492  0.65897187  0.68116065    -0.38320
C577        C  0.16595026  0.79003307  0.89343929    -0.04990
C578        C  0.16127156  0.73637174  0.89973913    -0.02110
C579        C  0.11126052  0.71545542  0.90583243     0.02880
C580        C  0.06566858  0.74774747  0.90306118    -0.04990
C581        C  0.07187752  0.80164370  0.90418583    -0.02090
C582        C  0.12199135  0.82291918  0.89950265     0.02880
C583        C  0.20624701  0.70182327  0.89722985     0.37530
C584        C  0.02672053  0.83552176  0.90836657     0.37520
C585        C  0.12662291  0.87891645  0.89958421     0.35940
C586        C  0.10687256  0.66028363  0.91317997     0.35940
N587        N  0.12847669  0.92365864  0.90040126    -0.38880
N588        N  0.10358812  0.61628576  0.91888825    -0.38880
N589        N  0.99096294  0.86277160  0.91168889    -0.38320
N590        N  0.24191429  0.67407513  0.89507282    -0.38320
C591        C  0.32046302  0.84123116  0.97026485    -0.04990
C592        C  0.36816204  0.82765582  0.98697560    -0.02110
C593        C  0.37173115  0.83025893  0.02141777     0.02880
C594        C  0.32820197  0.84789763  0.03899750    -0.04990
C595        C  0.28066290  0.86118209  0.02221164    -0.02090
C596        C  0.27642042  0.85625435  0.98834219     0.02880
C597        C  0.41499044  0.81635229  0.96871222     0.37530
C598        C  0.23645046  0.88319524  0.03942125     0.37520
C599        C  0.22679086  0.86979597  0.97219537     0.35940
C600        C  0.42161237  0.82034802  0.03836855     0.35940
N601        N  0.18647003  0.88159257  0.96068251    -0.38880
N602        N  0.46146361  0.81300858  0.05198951    -0.38880
N603        N  0.20127550  0.90128287  0.05273782    -0.38320
N604        N  0.45245586  0.80792182  0.95407727    -0.38320
C605        C  0.19447901  0.02419739  0.88419853    -0.04990
C606        C  0.14777944  0.03421710  0.86572564    -0.02110
C607        C  0.11798433  0.07872278  0.87152073     0.02880
C608        C  0.13798129  0.11750844  0.89285373    -0.04990
C609        C  0.18049167  0.10503186  0.91403592    -0.02090
C610        C  0.20741585  0.05740924  0.91075835     0.02880
C611        C  0.12995429  0.99987064  0.83992379     0.37530
C612        C  0.19668106  0.14141604  0.93885220     0.37520
C613        C  0.24873486  0.04400096  0.93448410     0.35940
C614        C  0.06729093  0.08337974  0.85442036     0.35940
N615        N  0.28137011  0.03334360  0.95363555    -0.38880
N616        N  0.02703302  0.08459373  0.84053984    -0.38880
N617        N  0.20938999  0.17053337  0.95864673    -0.38320
N618        N  0.11550447  0.97295731  0.81931225    -0.38320
C619        C  0.77639382  0.15053451  0.22201538    -0.04990
C620        C  0.75107499  0.18951817  0.24029365    -0.02110
C621        C  0.77667496  0.21244277  0.26843906     0.02880
C622        C  0.82660108  0.19427001  0.28073722    -0.04990
C623        C  0.84973758  0.15315946  0.26340139    -0.02090
C624        C  0.82750580  0.13499498  0.23363129     0.02880
C625        C  0.69945229  0.20760290  0.22949111     0.37530
C626        C  0.89548098  0.12609045  0.27694670     0.37520
C627        C  0.85963541  0.10121114  0.21438735     0.35940
C628        C  0.75041276  0.25337683  0.28550601     0.35940
N629        N  0.88641336  0.07626111  0.19838687    -0.38880
N630        N  0.72947426  0.28624148  0.29911014    -0.38880
N631        N  0.92991665  0.10175942  0.28812718    -0.38320
N632        N  0.65811993  0.22199213  0.22081380    -0.38320
C633        C  0.91677624  0.21847521  0.11921432    -0.04990
C634        C  0.87448752  0.23495937  0.13842969    -0.02110
C635        C  0.82216648  0.22640727  0.12796562     0.02880
C636        C  0.81215725  0.19561631  0.10055469    -0.04990
C637        C  0.85366042  0.18694694  0.07872334    -0.02090
C638        C  0.90619218  0.19760122  0.08831529     0.02880
C639        C  0.88437750  0.25892683  0.16970126     0.37530
C640        C  0.84236803  0.16249148  0.04780825     0.37520
C641        C  0.94930474  0.18577415  0.06699740     0.35940
C642        C  0.77890051  0.24575618  0.14687137     0.35940
N643        N  0.98385899  0.17636821  0.05009681    -0.38880
N644        N  0.74446627  0.26154275  0.16188524    -0.38880
N645        N  0.83326973  0.14285094  0.02319288    -0.38320
N646        N  0.89083574  0.27753221  0.19491862    -0.38320
C647        C  0.56454806  0.97983474  0.15732003    -0.04990
C648        C  0.51663728  0.00412709  0.16425933    -0.02110
C649        C  0.46841643  0.97711964  0.15953205     0.02880
C650        C  0.46651922  0.92127213  0.15709283    -0.04990
C651        C  0.51511274  0.89586710  0.15423046    -0.02090
C652        C  0.56194385  0.92538029  0.14979783     0.02880
C653        C  0.51582872  0.05889653  0.17193201     0.37530
C654        C  0.51575195  0.84011748  0.14999462     0.37520
C655        C  0.60245625  0.90092902  0.13093590     0.35940
C656        C  0.42434374  0.00956176  0.14911401     0.35940
N657        N  0.63292400  0.88037789  0.11494530    -0.38880
N658        N  0.39239926  0.03718499  0.13802921    -0.38880
N659        N  0.51616650  0.79565283  0.14661919    -0.38320
N660        N  0.51488574  0.10258157  0.17792797    -0.38320
C661        C  0.81403172  0.92338119  0.09156338    -0.04990
C662        C  0.83381857  0.90341767  0.12144025    -0.02110
C663        C  0.81213857  0.85759181  0.13343233     0.02880
C664        C  0.80003254  0.81816863  0.11101063    -0.04990
C665        C  0.78842305  0.83399920  0.07845287    -0.02090
C666        C  0.79033788  0.88770820  0.06965733     0.02880
C667        C  0.87295207  0.93080505  0.14089333     0.37530
C668        C  0.77568407  0.79535606  0.05443162     0.37520
C669        C  0.77078864  0.90566847  0.03803584     0.35940
C670        C  0.81233075  0.84875534  0.16836887     0.35940
N671        N  0.75513013  0.92008327  0.01275349    -0.38880
N672        N  0.81291659  0.84488198  0.19651892    -0.38880
N673        N  0.76568823  0.76433401  0.03524239    -0.38320
N674        N  0.90452004  0.95222533  0.15631362    -0.38320
C675        C  0.81042771  0.23057040  0.73459759    -0.04990
C676        C  0.75412684  0.22994099  0.73509393    -0.02110
C677        C  0.72547126  0.20315338  0.76059425     0.02880
C678        C  0.75187436  0.17444266  0.78625802    -0.04990
C679        C  0.80821117  0.17842406  0.78674801    -0.02090
C680        C  0.83645494  0.20489037  0.76158985     0.02880
C681        C  0.72513663  0.25474253  0.70831630     0.37530
C682        C  0.83873539  0.15623186  0.81398386     0.37520
C683        C  0.89370668  0.20442835  0.76371919     0.35940
C684        C  0.66851718  0.20555259  0.76003428     0.35940
N685        N  0.93930961  0.20309294  0.76525851    -0.38880
N686        N  0.62297869  0.20878366  0.75933474    -0.38880
N687        N  0.86360255  0.13853620  0.83542833    -0.38320
N688        N  0.70198370  0.27441799  0.68682035    -0.38320
C689        C  0.79997187  0.17140894  0.91171749    -0.04990
C690        C  0.84439770  0.14447152  0.92536759    -0.02110
C691        C  0.89551059  0.16029590  0.91713436     0.02880
C692        C  0.90202740  0.20671456  0.89934202    -0.04990
C693        C  0.85827522  0.24043344  0.89408843    -0.02090
C694        C  0.80689517  0.22220890  0.89957331     0.02880
C695        C  0.83704399  0.09679345  0.94405771     0.37530
C696        C  0.86549356  0.29318302  0.88223793     0.37520
C697        C  0.76159423  0.25371331  0.88984145     0.35940
C698        C  0.94098264  0.12832725  0.92592223     0.35940
N699        N  0.72546173  0.27886402  0.88200626    -0.38880
N700        N  0.97741741  0.10289134  0.93270379    -0.38880
N701        N  0.87039795  0.33580472  0.87352395    -0.38320
N702        N  0.83107850  0.05863322  0.95878623    -0.38320
C703        C  0.50829017  0.02974443  0.84707522    -0.04990
C704        C  0.51098843  0.98488942  0.82731388    -0.02110
C705        C  0.48732806  0.93620865  0.83613750     0.02880
C706        C  0.45754183  0.93122754  0.86451906    -0.04990
C707        C  0.45656756  0.97649709  0.88472964    -0.02090
C708        C  0.47362550  0.02572244  0.87327900     0.02880
C709        C  0.53041803  0.99019573  0.79507262     0.37530
C710        C  0.44270278  0.97286598  0.91892172     0.37520
C711        C  0.46425066  0.07161501  0.89244242     0.35940
C712        C  0.49986285  0.89020891  0.81819376     0.35940
N713        N  0.45693785  0.10808456  0.90775911    -0.38880
N714        N  0.51185305  0.85371745  0.80407078    -0.38880
N715        N  0.43182975  0.97025367  0.94615279    -0.38320
N716        N  0.54177263  0.99123983  0.76807483    -0.38320
C717        C  0.62805904  0.07588786  0.96989056    -0.04990
C718        C  0.64934621  0.11815002  0.98704816    -0.02110
C719        C  0.65185464  0.11695690  0.02157289     0.02880
C720        C  0.63313086  0.07311270  0.03946626    -0.04990
C721        C  0.60616156  0.03387993  0.02216094    -0.02090
C722        C  0.60400266  0.03507403  0.98771063     0.02880
C723        C  0.67184383  0.16171574  0.96938330     0.37530
C724        C  0.58050550  0.99192638  0.03970957     0.37520
C725        C  0.57756718  0.99343919  0.97056824     0.35940
C726        C  0.67623107  0.16034474  0.03807056     0.35940
N727        N  0.55689543  0.96001902  0.95690456    -0.38880
N728        N  0.69537733  0.19570391  0.05058600    -0.38880
N729        N  0.55996822  0.95853685  0.05369856    -0.38320
N730        N  0.68976033  0.19701603  0.95583995    -0.38320
C731        C  0.76624078  0.90678434  0.90170960    -0.04990
C732        C  0.81175385  0.89817086  0.88407479    -0.02110
C733        C  0.82296261  0.84803495  0.87416760     0.02880
C734        C  0.79834692  0.80391536  0.88888862    -0.04990
C735        C  0.75780257  0.81238319  0.91103668    -0.02090
C736        C  0.73984434  0.86377495  0.91610804     0.02880
C737        C  0.84397856  0.94119474  0.87253998     0.37530
C738        C  0.73477120  0.76881087  0.92823055     0.37520
C739        C  0.69486802  0.87269499  0.93644083     0.35940
C740        C  0.85613008  0.84433288  0.84601601     0.35940
N741        N  0.65900981  0.87989777  0.95273499    -0.38880
N742        N  0.88196989  0.84617469  0.82316229    -0.38880
N743        N  0.71659835  0.73390039  0.94203991    -0.38320
N744        N  0.87001178  0.97492979  0.86325019    -0.38320
C745        C  0.19589180  0.21504284  0.79213609    -0.04990
C746        C  0.21391360  0.24252344  0.76379065    -0.02110
C747        C  0.24329838  0.21694788  0.73845453     0.02880
C748        C  0.25603072  0.16299846  0.74017988    -0.04990
C749        C  0.24114831  0.13710809  0.76941894    -0.02090
C750        C  0.21618176  0.16367144  0.79538896     0.02880
C751        C  0.20705210  0.29797943  0.76126912     0.37530
C752        C  0.25099922  0.08188865  0.77320869     0.37520
C753        C  0.22378374  0.14244923  0.82774969     0.35940
C754        C  0.25867330  0.24610022  0.70977185     0.35940
N755        N  0.23586855  0.12661792  0.85330071    -0.38880
N756        N  0.27110604  0.26951773  0.68690056    -0.38880
N757        N  0.25745715  0.03759021  0.77614009    -0.38320
N758        N  0.20522194  0.34264112  0.75816766    -0.38320
C759        C  0.17491811  0.14690010  0.61491541    -0.04990
C760        C  0.17549816  0.20153232  0.61481225    -0.02110
C761        C  0.12804110  0.22811263  0.61854836     0.02880
C762        C  0.08028010  0.19952186  0.61994700    -0.04990
C763        C  0.07967360  0.14722937  0.61050477    -0.02090
C764        C  0.12762019  0.12129306  0.60702544     0.02880
C765        C  0.22438154  0.23035716  0.61194369     0.37530
C766        C  0.03035533  0.12016829  0.60446043     0.37520
C767        C  0.12842023  0.06985892  0.59365428     0.35940
C768        C  0.12977111  0.28394901  0.62288298     0.35940
N769        N  0.12731915  0.02970675  0.58160724    -0.38880
N770        N  0.13137820  0.32842092  0.62616279    -0.38880
N771        N  0.99104730  0.09859958  0.59966962    -0.38320
N772        N  0.26321439  0.25342562  0.60941440    -0.38320
C773        C  0.38570232  0.98693230  0.72815422    -0.04990
C774        C  0.39714549  0.93675513  0.73899337    -0.02110
C775        C  0.39013699  0.92492046  0.77185023     0.02880
C776        C  0.37560526  0.96475722  0.79324650    -0.04990
C777        C  0.38193409  0.01660271  0.78377590    -0.02090
C778        C  0.38710441  0.02792731  0.75053621     0.02880
C779        C  0.40898060  0.89664794  0.71589774     0.37530
C780        C  0.37622239  0.05761981  0.80715676     0.37520
C781        C  0.39412275  0.08099751  0.73977616     0.35940
C782        C  0.39325184  0.87131497  0.78219988     0.35940
N783        N  0.40295452  0.12379913  0.73299032    -0.38880
N784        N  0.39885086  0.82775811  0.78838105    -0.38880
N785        N  0.37149933  0.09034623  0.82580709    -0.38320
N786        N  0.41919230  0.86441650  0.69781875    -0.38320
C787        C  0.18922035  0.79359443  0.60632183    -0.04990
C788        C  0.24392562  0.79725636  0.61288075    -0.02110
C789        C  0.26609747  0.84483645  0.62274016     0.02880
C790        C  0.23328733  0.88886647  0.62796523    -0.04990
C791        C  0.17903539  0.88533573  0.62009072    -0.02090
C792        C  0.15861955  0.84000975  0.60612408     0.02880
C793        C  0.27784368  0.75232079  0.60942284     0.37530
C794        C  0.14290015  0.92676262  0.62790616     0.37520
C795        C  0.10569523  0.84188936  0.59174215     0.35940
C796        C  0.32271928  0.84696283  0.62864813     0.35940
N797        N  0.06364381  0.84355709  0.58020583    -0.38880
N798        N  0.36797726  0.84835431  0.63273893    -0.38880
N799        N  0.11325635  0.95847395  0.63523139    -0.38320
N800        N  0.30504898  0.71660207  0.60668809    -0.38320
C801        C  0.21519840  0.23492739  0.22036052    -0.04990
C802        C  0.22674227  0.26089854  0.24999049    -0.02110
C803        C  0.24892022  0.23308649  0.27803102     0.02880
C804        C  0.25836541  0.17857928  0.27730111    -0.04990
C805        C  0.24892170  0.15438275  0.24696072    -0.02090
C806        C  0.23457582  0.18372944  0.21864522     0.02880
C807        C  0.22086951  0.31652667  0.25103162     0.37530
C808        C  0.24724304  0.09841185  0.24501633     0.37520
C809        C  0.24707972  0.16388057  0.18705501     0.35940
C810        C  0.25791196  0.25979375  0.30834101     0.35940
N811        N  0.26025237  0.14983733  0.16190239    -0.38880
N812        N  0.26488439  0.28110026  0.33262842    -0.38880
N813        N  0.24288119  0.05384963  0.24352260    -0.38320
N814        N  0.21895632  0.36129794  0.25227535    -0.38320
C815        C  0.16194436  0.13437710  0.40783767    -0.04990
C816        C  0.12265740  0.09716095  0.41646788    -0.02110
C817        C  0.07357837  0.11372787  0.42767348     0.02880
C818        C  0.06305659  0.16684380  0.42965540    -0.04990
C819        C  0.10612864  0.20176943  0.42996880    -0.02090
C820        C  0.15534796  0.18594177  0.41805808     0.02880
C821        C  0.12997979  0.04195920  0.41194177     0.37530
C822        C  0.09915565  0.25486093  0.44000117     0.37520
C823        C  0.19716594  0.22367051  0.41433569     0.35940
C824        C  0.03155932  0.07676844  0.43367404     0.35940
N825        N  0.23046573  0.25390269  0.41145113    -0.38880
N826        N  0.99792972  0.04746829  0.43829892    -0.38880
N827        N  0.09448111  0.29734646  0.44807350    -0.38320
N828        N  0.13365928  0.99774824  0.40819619    -0.38320
C829        C  0.36201871  0.98188573  0.28816016    -0.04990
C830        C  0.36807517  0.93013307  0.27950745    -0.02110
C831        C  0.36277400  0.91741870  0.24645862     0.02880
C832        C  0.34655617  0.95611896  0.22328768    -0.04990
C833        C  0.35479058  0.00831004  0.23112726    -0.02090
C834        C  0.36495965  0.02095848  0.26376480     0.02880
C835        C  0.37371767  0.89004400  0.30458675     0.37530
C836        C  0.34753455  0.04952695  0.20715614     0.37520
C837        C  0.37217039  0.07467524  0.27241353     0.35940
C838        C  0.37516960  0.86528875  0.23680253     0.35940
N839        N  0.37874933  0.11808864  0.27775583    -0.38880
N840        N  0.38826530  0.82355483  0.23093990    -0.38880
N841        N  0.34190367  0.08419339  0.18917360    -0.38320
N842        N  0.37797385  0.85821248  0.32472697    -0.38320
C843        C  0.30732381  0.08309417  0.47441183    -0.04990
C844        C  0.33812068  0.12028232  0.49139392    -0.02110
C845        C  0.33932722  0.12073615  0.52601243     0.02880
C846        C  0.31008168  0.08382865  0.54409835    -0.04990
C847        C  0.27519658  0.05048868  0.52690157    -0.02090
C848        C  0.27310012  0.05091992  0.49262789     0.02880
C849        C  0.37048187  0.15697538  0.47366444     0.37530
C850        C  0.24319553  0.01252196  0.54404935     0.37520
C851        C  0.23611826  0.01628844  0.47653351     0.35940
C852        C  0.37337939  0.15723823  0.54272189     0.35940
N853        N  0.20705108  0.98755763  0.46446351    -0.38880
N854        N  0.40055780  0.18646813  0.55597438    -0.38880
N855        N  0.21916615  0.98067079  0.55720442    -0.38320
N856        N  0.39621585  0.18650602  0.45965819    -0.38320
C857        C  0.20364492  0.89979362  0.37921789    -0.04990
C858        C  0.16100914  0.88834147  0.35792714    -0.02110
C859        C  0.14281474  0.83745089  0.35582084     0.02880
C860        C  0.16166764  0.79826852  0.37813790    -0.04990
C861        C  0.19979630  0.81077450  0.40196435    -0.02090
C862        C  0.22168620  0.86102733  0.40222633     0.02880
C863        C  0.13576036  0.92813390  0.33718719     0.37530
C864        C  0.21770096  0.77139099  0.42540789     0.37520
C865        C  0.26289248  0.87183710  0.42623772     0.35940
C866        C  0.10779750  0.82625966  0.32832892     0.35940
N867        N  0.29597931  0.88018005  0.44529239    -0.38880
N868        N  0.08067870  0.82066215  0.30560378    -0.38880
N869        N  0.23197311  0.73981638  0.44399862    -0.38320
N870        N  0.11523318  0.95934598  0.32065893    -0.38320
C871        C  0.74051576  0.76199614  0.72197826    -0.04990
C872        C  0.76902157  0.71451755  0.72031089    -0.02110
C873        C  0.79874107  0.69408812  0.74796539     0.02880
C874        C  0.79475920  0.71661441  0.77914428    -0.04990
C875        C  0.75351180  0.75365430  0.78206261    -0.02090
C876        C  0.72756024  0.77683681  0.75382136     0.02880
C877        C  0.76393027  0.68439588  0.69100314     0.37530
C878        C  0.73224258  0.76144857  0.81398424     0.37520
C879        C  0.68141279  0.80902613  0.75734889     0.35940
C880        C  0.83234912  0.64925501  0.74429349     0.35940
N881        N  0.64322537  0.83305447  0.76011693    -0.38880
N882        N  0.85899902  0.61324034  0.74122886    -0.38880
N883        N  0.71347910  0.76611400  0.83920807    -0.38320
N884        N  0.75922849  0.65988436  0.66777511    -0.38320
C885        C  0.82291509  0.75768541  0.60125714    -0.04990
C886        C  0.84589726  0.72975991  0.62772599    -0.02110
C887        C  0.89026781  0.69984976  0.62323893     0.02880
C888        C  0.92715700  0.71680378  0.60036867    -0.04990
C889        C  0.90840677  0.74879172  0.57421373    -0.02090
C890        C  0.85479660  0.76635575  0.57361455     0.02880
C891        C  0.84386585  0.75084850  0.65999313     0.37530
C892        C  0.94375177  0.76337129  0.54846313     0.37520
C893        C  0.83460058  0.79821102  0.54672703     0.35940
C894        C  0.89648601  0.65395866  0.64366387     0.35940
N895        N  0.81823093  0.82362165  0.52525507    -0.38880
N896        N  0.89703815  0.61678351  0.65993131    -0.38880
N897        N  0.97214009  0.77477548  0.52785654    -0.38320
N898        N  0.84691136  0.76972685  0.68528080    -0.38320
C899        C  0.69807120  0.96446054  0.71889370    -0.04990
C900        C  0.72210138  0.93304362  0.74390669    -0.02110
C901        C  0.70450296  0.93627435  0.77556789     0.02880
C902        C  0.67204681  0.97747661  0.78397595    -0.04990
C903        C  0.65468516  0.01418175  0.76013418    -0.02090
C904        C  0.66474680  0.00573319  0.72716872     0.02880
C905        C  0.76899784  0.90187791  0.73905838     0.37530
C906        C  0.62859363  0.06153402  0.76943933     0.37520
C907        C  0.64500024  0.04197994  0.70229811     0.35940
C908        C  0.72510098  0.90121640  0.80087844     0.35940
N909        N  0.62946461  0.07090961  0.68241450    -0.38880
N910        N  0.74091860  0.87468317  0.82182737    -0.38880
N911        N  0.60624871  0.09882501  0.77618824    -0.38320
N912        N  0.80767809  0.87832543  0.73694789    -0.38320
C913        C  0.53477408  0.92508921  0.64426532    -0.04990
C914        C  0.50739714  0.94432626  0.61627072    -0.02110
C915        C  0.48885410  0.99588566  0.61475109     0.02880
C916        C  0.47873778  0.02416169  0.64364766    -0.04990
C917        C  0.50217347  0.00366632  0.67281798    -0.02090
C918        C  0.53128314  0.95521140  0.67285766     0.02880
C919        C  0.50458287  0.91286260  0.58720007     0.37530
C920        C  0.50372393  0.03674102  0.70066789     0.37520
C921        C  0.55723455  0.93493971  0.70199067     0.35940
C922        C  0.47964188  0.01979124  0.58270528     0.35940
N923        N  0.57802764  0.91608858  0.72461781    -0.38880
N924        N  0.47223089  0.03862069  0.55719136    -0.38880
N925        N  0.50678985  0.06566317  0.72182534    -0.38320
N926        N  0.50254155  0.88774126  0.56412283    -0.38320
C927        C  0.80854521  0.02651208  0.61188498    -0.04990
C928        C  0.78423112  0.06885282  0.59461723    -0.02110
C929        C  0.79164616  0.12003037  0.60520206     0.02880
C930        C  0.82903979  0.12973153  0.62987529    -0.04990
C931        C  0.85123700  0.08718361  0.64814536    -0.02090
C932        C  0.84376388  0.03625918  0.63793327     0.02880
C933        C  0.74882879  0.05920096  0.56714613     0.37530
C934        C  0.87706590  0.09514378  0.67970565     0.37520
C935        C  0.86849875  0.99383631  0.65652280     0.35940
C936        C  0.75476844  0.16044122  0.59512744     0.35940
N937        N  0.88834913  0.96048518  0.67159841    -0.38880
N938        N  0.72407444  0.19225148  0.58805029    -0.38880
N939        N  0.89707687  0.10091222  0.70500065    -0.38320
N940        N  0.72086373  0.05147351  0.54511918    -0.38320
C941        C  0.74238118  0.76327672  0.27879092    -0.04990
C942        C  0.78119612  0.72344961  0.28271318    -0.02110
C943        C  0.80420574  0.69902877  0.25525267     0.02880
C944        C  0.79247525  0.71677744  0.22327530    -0.04990
C945        C  0.74682080  0.74827915  0.21925479    -0.02090
C946        C  0.72051106  0.76911714  0.24677323     0.02880
C947        C  0.79214469  0.70209064  0.31478583     0.37530
C948        C  0.72426638  0.75465382  0.18670132     0.37520
C949        C  0.66725526  0.78807172  0.24246197     0.35940
C950        C  0.83365281  0.65120433  0.25938049     0.35940
N951        N  0.62342650  0.79914216  0.23802422    -0.38880
N952        N  0.85454375  0.61139923  0.26236506    -0.38880
N953        N  0.70642239  0.75860040  0.16057008    -0.38320
N954        N  0.80061523  0.68213783  0.33975124    -0.38320
C955        C  0.82880996  0.78313840  0.39888506    -0.04990
C956        C  0.83081303  0.72882869  0.40340921    -0.02110
C957        C  0.87907450  0.70188200  0.39977922     0.02880
C958        C  0.92622369  0.72965274  0.39408828    -0.04990
C959        C  0.92596506  0.78383450  0.39592746    -0.02090
C960        C  0.87795669  0.81074302  0.39841051     0.02880
C961        C  0.78315930  0.70045096  0.41076026     0.37530
C962        C  0.97538138  0.81224055  0.39388619     0.37520
C963        C  0.88097090  0.86700890  0.39851067     0.35940
C964        C  0.87876593  0.64574725  0.39846735     0.35940
N965        N  0.88499517  0.91171304  0.39798140    -0.38880
N966        N  0.87796571  0.60096557  0.39701414    -0.38880
N967        N  0.01452625  0.83501639  0.39221273    -0.38320
N968        N  0.74528281  0.67752148  0.41664459    -0.38320
C969        C  0.72313567  0.97683747  0.27014102    -0.04990
C970        C  0.77308479  0.99679879  0.26274901    -0.02110
C971        C  0.79712308  0.98158385  0.23405471     0.02880
C972        C  0.76690606  0.95848637  0.20916584    -0.04990
C973        C  0.71799481  0.93682617  0.21686624    -0.02090
C974        C  0.69549126  0.94684532  0.24697239     0.02880
C975        C  0.80287712  0.02423559  0.28764925     0.37530
C976        C  0.69503996  0.89803627  0.19609111     0.37520
C977        C  0.64809157  0.91939687  0.25600776     0.35940
C978        C  0.85397137  0.98034098  0.23233507     0.35940
N979        N  0.61082686  0.89642342  0.26302659    -0.38880
N980        N  0.89951212  0.97753141  0.23191239    -0.38880
N981        N  0.67752088  0.86536262  0.18039182    -0.38320
N982        N  0.82505980  0.04526664  0.30847531    -0.38320
C983        C  0.52655468  0.92804384  0.34515483    -0.04990
C984        C  0.50070480  0.92614857  0.37515357    -0.02110
C985        C  0.47026915  0.96910461  0.38586500     0.02880
C986        C  0.45951460  0.01445019  0.36540919    -0.04990
C987        C  0.48518295  0.01635170  0.33551591    -0.02090
C988        C  0.51668449  0.97378864  0.32507897     0.02880
C989        C  0.50728270  0.88055687  0.39614258     0.37530
C990        C  0.48447396  0.06470892  0.31700776     0.37520
C991        C  0.53904021  0.97929719  0.29309453     0.35940
C992        C  0.45339985  0.96681923  0.41948431     0.35940
N993        N  0.55418190  0.98816009  0.26721005    -0.38880
N994        N  0.44019961  0.96459098  0.44629611    -0.38880
N995        N  0.48623727  0.10366036  0.30263199    -0.38320
N996        N  0.51219170  0.84425088  0.41295429    -0.38320
C997        C  0.63512819  0.87501906  0.45737743    -0.04990
C998        C  0.64794520  0.82879218  0.47581611    -0.02110
C999        C  0.65796590  0.83006276  0.50994955     0.02880
C1000       C  0.65133767  0.87631319  0.52724244    -0.04990
C1001       C  0.63207502  0.92080528  0.50972716    -0.02090
C1002       C  0.62526107  0.92060375  0.47518917     0.02880
C1003       C  0.65027795  0.77876396  0.46022735     0.37530
C1004       C  0.61729907  0.96672590  0.52735881     0.37520
C1005       C  0.60818259  0.96783274  0.45832915     0.35940
C1006       C  0.67738463  0.78370893  0.52697141     0.35940
N1007       N  0.59445785  0.00562509  0.44500175    -0.38880
N1008       N  0.69308647  0.74674004  0.54040174    -0.38880
N1009       N  0.60499928  0.00312814  0.54147095    -0.38320
N1010       N  0.65191110  0.73867484  0.44804718    -0.38320
C1011       C  0.76526888  0.03758303  0.39551795    -0.04990
C1012       C  0.80318297  0.04564627  0.42039508    -0.02110
C1013       C  0.81930940  0.09657521  0.42727747     0.02880
C1014       C  0.79995182  0.13861565  0.40767871    -0.04990
C1015       C  0.75384000  0.13160495  0.38882860    -0.02090
C1016       C  0.73650021  0.08101643  0.38248859     0.02880
C1017       C  0.82455031  0.00212884  0.43926626     0.37530
C1018       C  0.72608779  0.17598220  0.37437762     0.37520
C1019       C  0.68950084  0.07508488  0.36216246     0.35940
C1020       C  0.85839173  0.10575054  0.45288378     0.35940
N1021       N  0.65132919  0.07325845  0.34622225    -0.38880
N1022       N  0.88958619  0.11333670  0.47324135    -0.38880
N1023       N  0.70375356  0.21128362  0.36293605    -0.38320
N1024       N  0.84127335  0.96776704  0.45485357    -0.38320
loop_ 
_geom_bond_atom_site_label_1 
_geom_bond_atom_site_label_2 
_geom_bond_distance 
_geom_bond_site_symmetry_2 
_ccdc_geom_bond_type 
O1           C16   1.258       .  A
O1           Al9   1.866       .  S
C2           O12   1.249       .  A
C2            O3   1.270       .  A
C2          C969   1.442       .  S
O3           Al5   1.951       .  S
O4            C6   1.225       .  A
O4           Al5   1.835       .  S
Al5          O13   1.843       .  S
Al5          O15   2.000       .  S
Al5          O14   1.742       .  S
C6           O19   1.294       .  A
C6          C983   1.543       .  S
O7           C17   1.289       .  A
O7           Al9   1.994       .  S
O8           C21   1.249       .  A
O8          Al18   1.850       .  S
Al9          O22   2.042       .  S
Al9          O19   2.106       .  S
Al9          O14   1.768       .  S
O10          C17   1.285       .  A
O10         Al18   2.012       .  S
O11          C20   1.271       .  A
O11         Al18   1.984       .  S
O12         Al18   1.787       .  S
O13          C20   1.240       .  A
O14         Al18   1.736       .  S
O15          C16   1.284       .  A
C16         C997   1.529       .  S
C17         C941   1.552       .  S
C20        C1011   1.476   1_565  S
C21          O22   1.293       .  A
C21         C955   1.510       .  S
O23          C38   1.282       .  A
O23         Al31   1.985       .  S
C24          O34   1.283       .  A
C24          O25   1.268       .  A
C24         C899   1.463       .  S
O25         Al27   1.878       .  S
O26          C28   1.269       .  A
O26         Al27   1.960       .  S
Al27         O35   1.927       .  S
Al27         O37   1.825       .  S
Al27         O36   1.757       .  S
C28          O41   1.270       .  A
C28         C871   1.556       .  S
O29          C39   1.276       .  A
O29         Al31   2.065       .  S
O30          C43   1.280       .  A
O30         Al40   1.898       .  S
Al31         O44   2.011       .  S
Al31         O41   1.987       .  S
Al31         O36   1.770       .  S
O32          C39   1.228       .  A
O32         Al40   1.821       .  S
O33          C42   1.231       .  A
O33         Al40   1.808       .  S
O34         Al40   1.911       .  S
O35          C42   1.252       .  A
O36         Al40   1.772       .  S
O37          C38   1.248       .  A
C38         C885   1.481       .  S
C39         C913   1.519       .  S
C42         C927   1.466   1_565  S
C43          O44   1.296       .  A
C43        C1000   1.513       .  S
O45          C60   1.283       .  A
O45         Al53   1.980       .  S
C46          O56   1.280   1_565  A
C46          O47   1.287       .  A
C46         C829   1.463       .  S
O47         Al49   1.946   1_565  S
O48          C50   1.225       .  A
O48         Al49   1.859       .  S
Al49         O57   1.822   1_545  S
Al49         O59   1.873       .  S
Al49         O58   1.773       .  S
C50          O63   1.293       .  A
C50         C986   1.553       .  S
O51          C61   1.270       .  A
O51         Al53   1.997       .  S
O52          C65   1.271       .  A
O52         Al62   1.842       .  S
Al53         O66   1.982       .  S
Al53         O63   2.103       .  S
Al53         O58   1.747       .  S
O54          C61   1.244       .  A
O54         Al62   1.889       .  S
O55          C64   1.242       .  A
O55         Al62   1.866   1_565  S
O56         Al62   1.874       .  S
O57          C64   1.228       .  A
O58         Al62   1.745       .  S
O59          C60   1.271       .  A
C60         C843   1.506       .  S
C61         C804   1.538       .  S
C64         C857   1.488       .  S
C65          O66   1.296       .  A
C65         C815   1.497       .  S
O67          C82   1.276       .  A
O67         Al75   1.890       .  S
C68          O78   1.278       .  A
C68          O69   1.292   1_565  A
C68         C773   1.452       .  S
O69         Al71   1.921       .  S
O70          C72   1.251       .  A
O70         Al71   1.910       .  S
Al71         O79   1.919   1_545  S
Al71         O81   1.888       .  S
Al71         O80   1.733       .  S
C72          O85   1.284       .  A
C72         C748   1.566       .  S
O73          C83   1.292       .  A
O73         Al75   2.129       .  S
O74          C87   1.276       .  A
O74         Al84   1.852       .  S
Al75         O88   2.023       .  S
Al75         O85   2.029       .  S
Al75         O80   1.749       .  S
O76          C83   1.222       .  A
O76         Al84   1.847       .  S
O77          C86   1.229       .  A
O77         Al84   1.825   1_565  S
O78         Al84   1.894   1_565  S
O79          C86   1.249       .  A
O80         Al84   1.764       .  S
O81          C82   1.279       .  A
C82         C759   1.469       .  S
C83         C916   1.546       .  S
C86         C790   1.496       .  S
C87          O88   1.298       .  A
C87         C846   1.503       .  S
O89         C104   1.276       .  A
O89         Al97   1.954       .  S
C90         O100   1.277       .  A
C90          O91   1.277   1_565  A
C90         C902   1.441       .  S
O91         Al93   1.872       .  S
O92          C94   1.263       .  A
O92         Al93   1.922       .  S
Al93        O101   1.929   1_545  S
Al93        O103   1.812       .  S
Al93        O102   1.733       .  S
C94         O107   1.283       .  A
C94         C678   1.571       .  S
O95         C105   1.282       .  A
O95         Al97   2.080       .  S
O96         C109   1.280       .  A
O96        Al106   1.874       .  S
Al97        O110   2.018       .  S
Al97        O107   2.027       .  S
Al97        O102   1.755       .  S
O98         C105   1.227       .  A
O98        Al106   1.823       .  S
O99         C108   1.234       .  A
O99        Al106   1.851   1_565  S
O100       Al106   1.897   1_565  S
O101        C108   1.252       .  A
O102       Al106   1.776       .  S
O103        C104   1.253       .  A
C104        C689   1.479       .  S
C105        C703   1.518       .  S
C108        C731   1.475       .  S
C109        O110   1.300       .  A
C109        C717   1.496       .  S
O111        C126   1.263       .  A
O111       Al119   1.897       .  S
C112        O122   1.260   1_565  A
C112        O113   1.277       .  A
C112        C972   1.471       .  S
O113       Al115   1.943       .  S
O114        C116   1.236   1_565  A
O114       Al115   1.836       .  S
Al115       O123   1.882       .  S
Al115       O125   1.928   1_565  S
Al115       O124   1.751   1_565  S
C116        O129   1.285       .  A
C116        C647   1.533   1_545  S
O117        C127   1.291       .  A
O117       Al119   2.019       .  S
O118        C131   1.260       .  A
O118       Al128   1.858       .  S
Al119       O132   1.984       .  S
Al119       O129   2.033       .  S
Al119       O124   1.770       .  S
O120        C127   1.269       .  A
O120       Al128   1.952       .  S
O121        C130   1.257   1_545  A
O121       Al128   1.934       .  S
O122       Al128   1.838       .  S
O123        C130   1.241       .  A
O124       Al128   1.769       .  S
O125        C126   1.271       .  A
C126        C720   1.506       .  S
C127        C619   1.552       .  S
C130        C661   1.492       .  S
C131        O132   1.285       .  A
C131        C636   1.479       .  S
O133        C148   1.294       .  A
O133       Al141   1.959       .  S
C134        O144   1.279       .  A
C134        O135   1.276       .  A
C134        C776   1.451       .  S
O135       Al137   1.865       .  S
O136        C138   1.247       .  A
O136       Al137   1.885       .  S
Al137       O145   1.879       .  S
Al137       O147   1.844       .  S
Al137       O146   1.742       .  S
C138        O151   1.273       .  A
C138        C566   1.564       .  S
O139        C149   1.297       .  A
O139       Al141   2.112       .  S
O140        C153   1.264       .  A
O140       Al150   1.859       .  S
Al141       O154   1.991       .  S
Al141       O151   2.028       .  S
Al141       O146   1.758       .  S
O142        C149   1.228       .  A
O142       Al150   1.873       .  S
O143        C152   1.227       .  A
O143       Al150   1.825       .  S
O144       Al150   1.925       .  S
O145        C152   1.244       .  A
O146       Al150   1.775       .  S
O147        C148   1.273       .  A
C148        C577   1.485       .  S
C149        C706   1.554       .  S
C152        C605   1.493   1_565  S
C153        O154   1.282       .  A
C153        C591   1.483       .  S
O155        C170   1.270       .  A
O155       Al163   1.951       .  S
C156        O166   1.279       .  A
C156        O157   1.289       .  A
C156        C832   1.481       .  S
O157       Al159   1.967       .  S
O158        C160   1.237       .  A
O158       Al159   1.822       .  S
Al159       O167   1.867       .  S
Al159       O169   1.832       .  S
Al159       O168   1.755       .  S
C160        O173   1.291       .  A
C160        C650   1.528       .  S
O161        C171   1.272       .  A
O161       Al163   2.005       .  S
O162        C175   1.287       .  A
O162       Al172   1.882       .  S
Al163       O176   1.996       .  S
Al163       O173   2.043       .  S
Al163       O168   1.740       .  S
O164        C171   1.246       .  A
O164       Al172   1.909       .  S
O165        C174   1.251       .  A
O165       Al172   1.924       .  S
O166       Al172   1.876       .  S
O167        C174   1.229       .  A
O168       Al172   1.749       .  S
O169        C170   1.253       .  A
C170        C594   1.478       .  S
C171        C524   1.534       .  S
C174        C552   1.501   1_565  S
C175        O176   1.299       .  A
C175        C538   1.473       .  S
O177        C192   1.259       .  A
O177       Al185   1.887       .  S
C178        O188   1.256   1_655  A
C178        O179   1.261       .  A
C178        C482   1.425       .  S
O179       Al181   1.920   1_655  S
O180        C182   1.238       .  A
O180       Al181   1.818       .  S
Al181       O189   1.885   1_455  S
Al181       O191   1.909       .  S
Al181       O190   1.769       .  S
C182        O195   1.291       .  A
C182        C493   1.499       .  S
O183        C193   1.281       .  A
O183       Al185   2.002       .  S
O184        C197   1.250       .  A
O184       Al194   1.830       .  S
Al185       O198   2.011       .  S
Al185       O195   2.058       .  S
Al185       O190   1.770       .  S
O186        C193   1.268       .  A
O186       Al194   1.962       .  S
O187        C196   1.269       .  A
O187       Al194   1.949   1_655  S
O188       Al194   1.806       .  S
O189        C196   1.255       .  A
O190       Al194   1.717       .  S
O191        C192   1.264       .  A
C192        C507   1.491       .  S
C193        C521   1.545       .  S
C196        C958   1.482       .  S
C197        O198   1.289       .  A
C197        C860   1.477       .  S
O199        C214   1.288       .  A
O199       Al207   1.995       .  S
C200        O210   1.254       .  A
C200        O201   1.248       .  A
C200        C451   1.419       .  S
O201       Al203   1.801       .  S
O202        C204   1.274       .  A
O202       Al203   1.968       .  S
Al203       O211   1.981       .  S
Al203       O213   1.856       .  S
Al203       O212   1.738       .  S
C204        O217   1.298       .  A
C204        C563   1.560       .  S
O205        C215   1.290       .  A
O205       Al207   2.113       .  S
O206        C219   1.268       .  A
O206       Al216   1.920       .  S
Al207       O220   1.887       .  S
Al207       O217   2.032       .  S
Al207       O212   1.772       .  S
O208        C215   1.221       .  A
O208       Al216   1.819       .  S
O209        C218   1.247   1_455  A
O209       Al216   1.881       .  S
O210       Al216   1.863       .  S
O211        C218   1.272   1_455  A
O212       Al216   1.748       .  S
O213        C214   1.261       .  A
C214        C787   1.501       .  S
C215        C468   1.532       .  S
C218        C888   1.491       .  S
C219        O220   1.263       .  A
C219        C510   1.492       .  S
O221        C236   1.257       .  A
O221       Al229   1.881       .  S
C222        O232   1.264   1_455  A
C222        O223   1.265       .  A
C222        C426   1.456       .  S
O223       Al225   1.925   1_455  S
O224        C226   1.240       .  A
O224       Al225   1.835       .  S
Al225       O233   1.881       .  S
Al225       O235   1.916       .  S
Al225       O234   1.762       .  S
C226        O239   1.284       .  A
C226        C496   1.502       .  S
O227        C237   1.286       .  A
O227       Al229   1.993       .  S
O228        C241   1.257       .  A
O228       Al238   1.840       .  S
Al229       O242   1.968       .  S
Al229       O239   2.036       .  S
Al229       O234   1.778       .  S
O230        C237   1.273       .  A
O230       Al238   1.963       .  S
O231        C240   1.265   1_655  A
O231       Al238   1.930       .  S
O232       Al238   1.830       .  S
O233        C240   1.249   1_655  A
O234       Al238   1.751       .  S
O235        C236   1.266       .  A
C236        C437   1.505       .  S
C237        C622   1.550       .  S
C240        C818   1.483       .  S
C241        O242   1.281       .  A
C241       C1014   1.478       .  S
O243        C258   1.287       .  A
O243       Al251   1.985       .  S
C244        O254   1.269       .  A
C244        O245   1.278       .  A
C244        C409   1.432       .  S
O245       Al247   1.881       .  S
O246        C248   1.253       .  A
O246       Al247   1.898       .  S
Al247       O255   1.885       .  S
Al247       O257   1.803       .  S
Al247       O256   1.736       .  S
C248        O261   1.280       .  A
C248        C675   1.566       .  S
O249        C259   1.294       .  A
O249       Al251   2.140       .  S
O250        C263   1.273       .  A
O250       Al260   1.871       .  S
Al251       O264   2.029       .  S
Al251       O261   2.019       .  S
Al251       O256   1.752       .  S
O252        C259   1.225       .  A
O252       Al260   1.871       .  S
O253        C262   1.225       .  A
O253       Al260   1.805   1_455  S
O254       Al260   1.878       .  S
O255        C262   1.242   1_655  A
O256       Al260   1.775       .  S
O257        C258   1.256       .  A
C258        C930   1.482       .  S
C259        C465   1.560       .  S
C262        C762   1.462       .  S
C263        O264   1.299       .  A
C263        C440   1.492       .  S
O265        C280   1.289       .  A
O265       Al273   2.040       .  S
C266        O276   1.301       .  A
C266        O267   1.275       .  A
C266        C454   1.459       .  S
O267       Al269   1.864       .  S
O268        C270   1.279       .  A
O268       Al269   2.009       .  S
Al269       O277   1.943       .  S
Al269       O279   1.806       .  S
Al269       O278   1.701       .  S
C270        O283   1.273       .  A
C270        C874   1.550       .  S
O271        C281   1.285       .  A
O271       Al273   2.118       .  S
O272        C285   1.291       .  A
O272       Al282   1.873       .  S
Al273       O286   1.969       .  S
Al273       O283   1.965       .  S
Al273       O278   1.745       .  S
O274        C281   1.211       .  A
O274       Al282   1.837       .  S
O275        C284   1.229       .  A
O275       Al282   1.833   1_455  S
O276       Al282   1.931       .  S
O277        C284   1.252   1_655  A
O278       Al282   1.732       .  S
O279        C280   1.240       .  A
C280        C734   1.489       .  S
C281        C381   1.537       .  S
C284        C580   1.481       .  S
C285        O286   1.297       .  A
C285        C398   1.452       .  S
O287        C302   1.254       .  A
O287       Al295   1.860       .  S
C288        O298   1.260       .  A
C288        O289   1.290   1_655  A
C288        C479   1.452   1_655  S
O289       Al291   1.983   1_455  S
O290        C292   1.238       .  A
O290       Al291   1.797       .  S
Al291       O299   1.882       .  S
Al291       O301   1.873       .  S
Al291       O300   1.751       .  S
C292        O305   1.291       .  A
C292        C367   1.516       .  S
O293        C303   1.276       .  A
O293       Al295   1.996       .  S
O294        C307   1.263       .  A
O294       Al304   1.827       .  S
Al295       O308   2.042       .  S
Al295       O305   2.040       .  S
Al295       O300   1.766       .  S
O296        C303   1.261       .  A
O296       Al304   1.952       .  S
O297        C306   1.250   1_655  A
O297       Al304   1.963       .  S
O298       Al304   1.738       .  S
O299        C306   1.235   1_655  A
O300       Al304   1.763       .  S
O301        C302   1.261       .  A
C302        C395   1.448       .  S
C303        C944   1.535       .  S
C306        C535   1.484       .  S
C307        O308   1.299       .  A
C307        C664   1.475       .  S
O309        C324   1.291       .  A
O309       Al317   2.013       .  S
C310        O320   1.264       .  A
C310        O311   1.259   1_655  A
C310        C412   1.446       .  S
O311       Al313   1.845       .  S
O312        C314   1.278       .  A
O312       Al313   2.003       .  S
Al313       O321   1.981   1_455  S
Al313       O323   1.841       .  S
Al313       O322   1.752       .  S
C314        O327   1.292       .  A
C314        C745   1.587       .  S
O315        C325   1.303       .  A
O315       Al317   2.116       .  S
O316        C329   1.266       .  A
O316       Al326   1.941       .  S
Al317       O330   1.927       .  S
Al317       O327   2.040       .  S
Al317       O322   1.763       .  S
O318        C325   1.226       .  A
O318       Al326   1.804       .  S
O319        C328   1.247       .  A
O319       Al326   1.853   1_655  S
O320       Al326   1.910   1_655  S
O321        C328   1.274       .  A
O322       Al326   1.763       .  S
O323        C324   1.250       .  A
C324        C608   1.486       .  S
C325        C384   1.520       .  S
C328        C692   1.471       .  S
C329        O330   1.266       .  A
C329        C353   1.518       .  S
O331        C346   1.267       .  A
O331       Al339   1.870       .  S
C332        O342   1.229       .  A
C332        O333   1.271       .  A
C332        C423   1.454       .  S
O333       Al335   1.972       .  S
O334        C336   1.225       .  A
O334       Al335   1.836       .  S
Al335       O343   1.834   1_455  S
Al335       O345   2.028       .  S
Al335       O344   1.743       .  S
C336        O349   1.289       .  A
C336        C370   1.545       .  S
O337        C347   1.289       .  A
O337       Al339   2.006       .  S
O338        C351   1.245       .  A
O338       Al348   1.844       .  S
Al339       O352   2.072       .  S
Al339       O349   2.114       .  S
Al339       O344   1.787       .  S
O340        C347   1.278       .  A
O340       Al348   1.984       .  S
O341        C350   1.263   1_455  A
O341       Al348   1.945       .  S
O342       Al348   1.718       .  S
O343        C350   1.242       .  A
O344       Al348   1.714       .  S
O345        C346   1.294       .  A
C346        C356   1.518       .  S
C347        C801   1.545       .  S
C350        C633   1.466       .  S
C351        O352   1.294       .  A
C351        C549   1.511       .  S
C353        C354   1.415       .  A
C353        C358   1.424       .  A
C354        C355   1.419   1_556  A
C354        C359   1.452       .  S
C355        C356   1.424       .  A
C355        C362   1.452       .  S
C356        C357   1.416       .  A
C357        C358   1.426   1_554  A
C357        C360   1.449   1_455  S
C358        C361   1.450   1_455  S
C359        N366   1.157       .  T
C360        N365   1.157       .  T
C361        N363   1.157       .  T
C362        N364   1.157       .  T
C367        C368   1.434   1_655  A
C367        C372   1.393       .  A
C368        C369   1.436       .  A
C368        C373   1.449   1_455  S
C369        C370   1.414       .  A
C369        C376   1.446       .  S
C370        C371   1.431       .  A
C371        C372   1.422   1_455  A
C371        C374   1.430       .  S
C372        C375   1.449       .  S
C373        N380   1.157       .  T
C374        N379   1.150       .  T
C375        N377   1.157       .  T
C376        N378   1.157       .  T
C381        C382   1.440       .  A
C381        C386   1.406       .  A
C382        C383   1.427   1_655  A
C382        C387   1.451       .  S
C383        C384   1.405       .  A
C383        C390   1.448       .  S
C384        C385   1.431       .  A
C385        C386   1.434   1_455  A
C385        C388   1.430       .  S
C386        C389   1.448       .  S
C387        N394   1.157       .  T
C388        N393   1.151       .  T
C389        N391   1.157       .  T
C390        N392   1.157       .  T
C395        C396   1.405       .  A
C395        C400   1.407       .  A
C396        C397   1.394   1_554  A
C396        C401   1.453       .  S
C397        C398   1.409       .  A
C397        C404   1.451       .  S
C398        C399   1.410       .  A
C399        C400   1.403   1_556  A
C399        C402   1.450       .  S
C400        C403   1.451       .  S
C401        N408   1.157       .  T
C402        N407   1.157       .  T
C403        N405   1.157       .  T
C404        N406   1.157       .  T
C409        C410   1.390   1_655  A
C409        C414   1.419       .  A
C410        C411   1.385       .  A
C410        C415   1.453       .  S
C411        C412   1.411   1_455  A
C411        C418   1.437       .  S
C412        C413   1.393       .  A
C413        C414   1.393       .  A
C413        C416   1.451       .  S
C414        C417   1.445       .  S
C415        N422   1.157       .  T
C416        N421   1.157       .  T
C417        N419   1.157       .  T
C418        N420   1.155       .  T
C423        C424   1.420       .  A
C423        C428   1.425       .  A
C424        C425   1.406       .  A
C424        C429   1.444       .  S
C425        C426   1.404       .  A
C425        C432   1.448       .  S
C426        C427   1.389       .  A
C427        C428   1.395       .  A
C427        C430   1.448       .  S
C428        C431   1.450   1_455  S
C429        N436   1.154       .  T
C430        N435   1.157       .  T
C431        N433   1.154       .  T
C432        N434   1.157       .  T
C437        C438   1.418       .  A
C437        C442   1.425       .  A
C438        C439   1.409       .  A
C438        C443   1.449       .  S
C439        C440   1.418       .  A
C439        C446   1.454       .  S
C440        C441   1.403       .  A
C441        C442   1.412       .  A
C441        C444   1.441       .  S
C442        C445   1.453       .  S
C443        N450   1.155   1_655  T
C444        N449   1.153       .  T
C445        N447   1.157       .  T
C446        N448   1.157   1_655  T
C451        C452   1.390   1_455  A
C451        C456   1.411       .  A
C452        C453   1.381       .  A
C452        C457   1.467       .  S
C453        C454   1.434       .  A
C453        C460   1.451       .  S
C454        C455   1.405   1_655  A
C455        C456   1.398       .  A
C455        C458   1.453       .  S
C456        C459   1.451       .  S
C457        N464   1.157       .  T
C458        N463   1.157       .  T
C459        N461   1.156       .  T
C460        N462   1.156       .  T
C465        C466   1.420       .  A
C465        C470   1.434       .  A
C466        C467   1.435   1_655  A
C466        C471   1.438       .  S
C467        C468   1.413       .  A
C467        C474   1.436       .  S
C468        C469   1.412       .  A
C469        C470   1.433   1_455  A
C469        C472   1.445       .  S
C470        C473   1.450       .  S
C471        N478   1.157       .  T
C472        N477   1.157       .  T
C473        N475   1.157       .  T
C474        N476   1.154       .  T
C479        C480   1.422   1_455  A
C479        C484   1.406       .  A
C480        C481   1.395       .  A
C480        C485   1.454       .  S
C481        C482   1.398       .  A
C481        C488   1.453       .  S
C482        C483   1.400       .  A
C483        C484   1.406   1_655  A
C483        C486   1.440       .  S
C484        C487   1.446       .  S
C485        N492   1.157       .  T
C486        N491   1.154       .  T
C487        N489   1.157       .  T
C488        N490   1.157       .  T
C493        C494   1.417       .  A
C493        C498   1.411       .  A
C494        C495   1.421   1_455  A
C494        C499   1.445       .  S
C495        C496   1.409       .  A
C495        C502   1.447       .  S
C496        C497   1.413   1_655  A
C497        C498   1.429       .  A
C497        C500   1.444   1_455  S
C498        C501   1.444       .  S
C499        N506   1.157       .  T
C500        N505   1.157       .  T
C501        N503   1.157       .  T
C502        N504   1.157       .  T
C507        C508   1.416       .  A
C507        C512   1.416       .  A
C508        C509   1.405       .  A
C508        C513   1.451   1_455  S
C509        C510   1.418       .  A
C509        C516   1.454       .  S
C510        C511   1.417       .  A
C511        C512   1.411       .  A
C511        C514   1.452       .  S
C512        C515   1.452       .  S
C513        N520   1.156       .  T
C514        N519   1.157       .  T
C515        N517   1.157       .  T
C516        N518   1.158   1_455  T
C521        C522   1.423       .  A
C521        C526   1.415       .  A
C522        C523   1.447       .  A
C522        C527   1.445       .  S
C523        C524   1.425       .  A
C523        C530   1.445       .  S
C524        C525   1.414       .  A
C525        C526   1.416       .  A
C525        C528   1.448       .  S
C526        C529   1.440       .  S
C527        N534   1.157       .  T
C528        N533   1.157       .  T
C529        N531   1.155       .  T
C530        N532   1.157       .  T
C535        C536   1.419       .  A
C535        C540   1.408       .  A
C536        C537   1.420       .  A
C536        C541   1.448       .  S
C537        C538   1.409       .  A
C537        C544   1.443       .  S
C538        C539   1.389       .  A
C539        C540   1.390       .  A
C539        C542   1.438       .  S
C540        C543   1.439       .  S
C541        N548   1.157       .  T
C542        N547   1.155       .  T
C543        N545   1.155       .  T
C544        N546   1.157       .  T
C549        C550   1.440       .  A
C549        C554   1.409       .  A
C550        C551   1.402       .  A
C550        C555   1.448       .  S
C551        C552   1.401       .  A
C551        C558   1.460       .  S
C552        C553   1.429       .  A
C553        C554   1.422       .  A
C553        C556   1.450       .  S
C554        C557   1.450       .  S
C555        N562   1.159       .  T
C556        N561   1.158       .  T
C557        N559   1.157       .  T
C558        N560   1.158   1_545  T
C563        C564   1.428       .  A
C563        C568   1.423       .  A
C564        C565   1.456       .  A
C564        C569   1.446       .  S
C565        C566   1.429       .  A
C565        C572   1.444       .  S
C566        C567   1.426       .  A
C567        C568   1.428       .  A
C567        C570   1.455       .  S
C568        C571   1.445       .  S
C569        N576   1.157       .  T
C570        N575   1.157       .  T
C571        N573   1.155       .  T
C572        N574   1.157       .  T
C577        C578   1.409       .  A
C577        C582   1.427       .  A
C578        C579   1.405       .  A
C578        C583   1.452       .  S
C579        C580   1.424       .  A
C579        C586   1.454       .  S
C580        C581   1.400       .  A
C581        C582   1.401       .  A
C581        C584   1.453       .  S
C582        C585   1.449       .  S
C583        N590   1.157       .  T
C584        N589   1.157   1_455  T
C585        N587   1.156       .  T
C586        N588   1.158       .  T
C591        C592   1.417       .  A
C591        C596   1.412       .  A
C592        C593   1.417   1_556  A
C592        C597   1.450       .  S
C593        C594   1.411       .  A
C593        C600   1.450       .  S
C594        C595   1.413       .  A
C595        C596   1.400   1_554  A
C595        C598   1.457       .  S
C596        C599   1.448       .  S
C597        N604   1.157       .  T
C598        N603   1.158       .  T
C599        N601   1.154       .  T
C600        N602   1.157       .  T
C605        C606   1.412       .  A
C605        C610   1.431       .  A
C606        C607   1.399       .  A
C606        C611   1.458   1_545  S
C607        C608   1.428       .  A
C607        C614   1.454       .  S
C608        C609   1.403       .  A
C609        C610   1.413       .  A
C609        C612   1.451       .  S
C610        C613   1.451       .  S
C611        N618   1.158       .  T
C612        N617   1.157       .  T
C613        N615   1.158       .  T
C614        N616   1.158       .  T
C619        C620   1.425       .  A
C619        C624   1.425       .  A
C620        C621   1.449       .  A
C620        C625   1.446       .  S
C621        C622   1.427       .  A
C621        C628   1.446       .  S
C622        C623   1.420       .  A
C623        C624   1.422       .  A
C623        C626   1.447       .  S
C624        C627   1.448       .  S
C625        N632   1.157       .  T
C626        N631   1.155       .  T
C627        N629   1.157       .  T
C628        N630   1.157       .  T
C633        C634   1.414       .  A
C633        C638   1.407       .  A
C634        C635   1.405       .  A
C634        C639   1.452       .  S
C635        C636   1.408       .  A
C635        C642   1.450       .  S
C636        C637   1.417       .  A
C637        C638   1.410       .  A
C637        C640   1.450       .  S
C638        C641   1.450       .  S
C639        N646   1.157       .  T
C640        N645   1.157       .  T
C641        N643   1.157       .  T
C642        N644   1.157       .  T
C647        C648   1.402   1_565  A
C647        C652   1.444       .  A
C648        C649   1.420   1_545  A
C648        C653   1.452       .  S
C649        C650   1.446       .  A
C649        C656   1.446   1_565  S
C650        C651   1.402       .  A
C651        C652   1.426       .  A
C651        C654   1.451       .  S
C652        C655   1.450       .  S
C653        N660   1.157       .  T
C654        N659   1.157       .  T
C655        N657   1.158       .  T
C656        N658   1.157       .  T
C661        C662   1.403       .  A
C661        C666   1.423       .  A
C662        C663   1.391       .  A
C662        C667   1.453       .  S
C663        C664   1.413       .  A
C663        C670   1.448       .  S
C664        C665   1.414       .  A
C665        C666   1.426       .  A
C665        C668   1.446       .  S
C666        C669   1.447       .  S
C667        N674   1.157       .  T
C668        N673   1.157       .  T
C669        N671   1.157       .  T
C670        N672   1.158       .  T
C675        C676   1.428       .  A
C675        C680   1.428       .  A
C676        C677   1.453       .  A
C676        C681   1.447       .  S
C677        C678   1.429       .  A
C677        C684   1.445       .  S
C678        C679   1.432       .  A
C679        C680   1.433       .  A
C679        C682   1.453       .  S
C680        C683   1.452       .  S
C681        N688   1.157       .  T
C682        N687   1.157       .  T
C683        N685   1.157       .  T
C684        N686   1.157       .  T
C689        C690   1.421       .  A
C689        C694   1.406       .  A
C690        C691   1.406       .  A
C690        C695   1.452       .  S
C691        C692   1.403       .  A
C691        C698   1.451       .  S
C692        C693   1.418       .  A
C693        C694   1.408       .  A
C693        C696   1.449       .  S
C694        C697   1.450       .  S
C695        N702   1.157       .  T
C696        N701   1.157       .  T
C697        N699   1.157       .  T
C698        N700   1.157       .  T
C703        C704   1.427   1_545  A
C703        C708   1.407       .  A
C704        C705   1.437       .  A
C704        C709   1.427       .  S
C705        C706   1.406       .  A
C705        C712   1.446       .  S
C706        C707   1.445       .  A
C707        C708   1.417   1_565  A
C707        C710   1.456       .  S
C708        C711   1.454       .  S
C709        N716   1.151       .  T
C710        N715   1.158       .  T
C711        N713   1.157       .  T
C712        N714   1.157       .  T
C717        C718   1.410       .  A
C717        C722   1.418       .  A
C718        C719   1.417   1_556  A
C718        C723   1.451       .  S
C719        C720   1.425       .  A
C719        C726   1.451       .  S
C720        C721   1.416       .  A
C721        C722   1.413   1_554  A
C721        C724   1.452   1_545  S
C722        C725   1.452   1_545  S
C723        N730   1.157       .  T
C724        N729   1.157       .  T
C725        N727   1.157       .  T
C726        N728   1.157       .  T
C731        C732   1.395       .  A
C731        C736   1.423       .  A
C732        C733   1.392       .  A
C732        C737   1.458       .  S
C733        C734   1.430       .  A
C733        C740   1.448       .  S
C734        C735   1.407       .  A
C735        C736   1.420       .  A
C735        C738   1.447       .  S
C736        C739   1.448       .  S
C737        N744   1.158       .  T
C738        N743   1.157       .  T
C739        N741   1.157       .  T
C740        N742   1.156       .  T
C745        C746   1.435       .  A
C745        C750   1.422       .  A
C746        C747   1.459       .  A
C746        C751   1.441       .  S
C747        C748   1.427       .  A
C747        C754   1.447       .  S
C748        C749   1.421       .  A
C749        C750   1.435       .  A
C749        C752   1.450       .  S
C750        C753   1.436       .  S
C751        N758   1.157       .  T
C752        N757   1.157       .  T
C753        N755   1.153       .  T
C754        N756   1.157       .  T
C759        C760   1.409       .  A
C759        C764   1.405       .  A
C760        C761   1.396       .  A
C760        C765   1.453       .  S
C761        C762   1.421       .  A
C761        C768   1.454       .  S
C762        C763   1.410       .  A
C763        C764   1.397       .  A
C763        C766   1.453       .  S
C764        C767   1.445       .  S
C765        N772   1.158       .  T
C766        N771   1.158   1_455  T
C767        N769   1.155       .  T
C768        N770   1.158       .  T
C773        C774   1.388       .  A
C773        C778   1.413   1_565  A
C774        C775   1.393       .  A
C774        C779   1.451       .  S
C775        C776   1.417       .  A
C775        C782   1.440       .  S
C776        C777   1.396   1_565  A
C777        C778   1.399       .  A
C777        C780   1.450       .  S
C778        C781   1.443       .  S
C779        N786   1.157       .  T
C780        N785   1.157       .  T
C781        N783   1.157       .  T
C782        N784   1.154       .  T
C787        C788   1.411       .  A
C787        C792   1.424       .  A
C788        C789   1.413       .  A
C788        C793   1.452       .  S
C789        C790   1.428       .  A
C789        C796   1.452       .  S
C790        C791   1.410       .  A
C791        C792   1.406       .  A
C791        C794   1.450       .  S
C792        C795   1.454       .  S
C793        N800   1.158       .  T
C794        N799   1.157       .  T
C795        N797   1.157       .  T
C796        N798   1.157       .  T
C801        C802   1.424       .  A
C801        C806   1.411       .  A
C802        C803   1.447       .  A
C802        C807   1.443       .  S
C803        C804   1.426       .  A
C803        C810   1.447       .  S
C804        C805   1.419       .  A
C805        C806   1.415       .  A
C805        C808   1.447       .  S
C806        C809   1.444       .  S
C807        N814   1.157       .  T
C808        N813   1.157       .  T
C809        N811   1.156       .  T
C810        N812   1.157       .  T
C815        C816   1.431       .  A
C815        C820   1.412       .  A
C816        C817   1.404       .  A
C816        C821   1.450       .  S
C817        C818   1.399       .  A
C817        C824   1.454       .  S
C818        C819   1.418       .  A
C819        C820   1.412       .  A
C819        C822   1.448       .  S
C820        C823   1.450       .  S
C821        N828   1.157   1_545  T
C822        N827   1.157       .  T
C823        N825   1.157       .  T
C824        N826   1.157   1_455  T
C829        C830   1.396       .  A
C829        C834   1.411   1_565  A
C830        C831   1.405       .  A
C830        C835   1.450       .  S
C831        C832   1.419       .  A
C831        C838   1.444       .  S
C832        C833   1.404   1_565  A
C833        C834   1.403       .  A
C833        C836   1.443       .  S
C834        C837   1.447       .  S
C835        N842   1.157       .  T
C836        N841   1.155       .  T
C837        N839   1.156       .  T
C838        N840   1.156       .  T
C843        C844   1.421       .  A
C843        C848   1.418       .  A
C844        C845   1.421       .  A
C844        C849   1.450       .  S
C845        C846   1.417       .  A
C845        C852   1.450       .  S
C846        C847   1.421       .  A
C847        C848   1.406       .  A
C847        C850   1.455       .  S
C848        C851   1.453       .  S
C849        N856   1.157       .  T
C850        N855   1.157   1_545  T
C851        N853   1.157   1_545  T
C852        N854   1.158       .  T
C857        C858   1.410       .  A
C857        C862   1.430       .  A
C858        C859   1.396       .  A
C858        C863   1.458       .  S
C859        C860   1.425       .  A
C859        C866   1.454       .  S
C860        C861   1.402       .  A
C861        C862   1.411       .  A
C861        C864   1.451       .  S
C862        C865   1.451       .  S
C863        N870   1.158       .  T
C864        N869   1.157       .  T
C865        N867   1.157       .  T
C866        N868   1.158       .  T
C871        C872   1.423       .  A
C871        C876   1.414       .  A
C872        C873   1.439       .  A
C872        C877   1.447       .  S
C873        C874   1.420       .  A
C873        C880   1.446       .  S
C874        C875   1.423       .  A
C875        C876   1.440       .  A
C875        C878   1.445       .  S
C876        C879   1.444       .  S
C877        N884   1.157       .  T
C878        N883   1.157       .  T
C879        N881   1.157       .  T
C880        N882   1.157       .  T
C885        C886   1.407       .  A
C885        C890   1.422       .  A
C886        C887   1.380       .  A
C886        C891   1.443       .  S
C887        C888   1.405       .  A
C887        C894   1.444       .  S
C888        C889   1.415       .  A
C889        C890   1.431       .  A
C889        C892   1.446       .  S
C890        C893   1.447       .  S
C891        N898   1.155       .  T
C892        N897   1.157       .  T
C893        N895   1.157       .  T
C894        N896   1.158       .  T
C899        C900   1.421       .  A
C899        C904   1.408   1_565  A
C900        C901   1.387       .  A
C900        C905   1.453       .  S
C901        C902   1.395       .  A
C901        C908   1.452       .  S
C902        C903   1.411   1_565  A
C903        C904   1.403       .  A
C903        C906   1.448       .  S
C904        C907   1.451       .  S
C905        N912   1.158       .  T
C906        N911   1.156       .  T
C907        N909   1.157       .  T
C908        N910   1.153       .  T
C913        C914   1.411       .  A
C913        C918   1.423       .  A
C914        C915   1.409       .  A
C914        C919   1.455       .  S
C915        C916   1.431   1_565  A
C915        C922   1.456   1_565  S
C916        C917   1.417       .  A
C917        C918   1.449   1_545  A
C917        C920   1.438       .  S
C918        C921   1.441       .  S
C919        N926   1.157       .  T
C920        N925   1.156       .  T
C921        N923   1.156       .  T
C922        N924   1.157       .  T
C927        C928   1.422       .  A
C927        C932   1.404       .  A
C928        C929   1.408       .  A
C928        C933   1.451       .  S
C929        C930   1.398       .  A
C929        C936   1.446       .  S
C930        C931   1.425       .  A
C931        C932   1.398       .  A
C931        C934   1.457       .  S
C932        C935   1.455   1_545  S
C933        N940   1.157       .  T
C934        N939   1.158       .  T
C935        N937   1.157       .  T
C936        N938   1.158       .  T
C941        C942   1.425       .  A
C941        C946   1.420       .  A
C942        C943   1.435       .  A
C942        C947   1.439       .  S
C943        C944   1.407       .  A
C943        C950   1.445       .  S
C944        C945   1.417       .  A
C945        C946   1.436       .  A
C945        C948   1.448       .  S
C946        C949   1.441       .  S
C947        N954   1.154       .  T
C948        N953   1.157       .  T
C949        N951   1.156       .  T
C950        N952   1.157       .  T
C955        C956   1.410       .  A
C955        C960   1.437       .  A
C956        C957   1.418       .  A
C956        C961   1.449       .  S
C957        C958   1.417       .  A
C957        C964   1.449       .  S
C958        C959   1.400       .  A
C959        C960   1.406       .  A
C959        C962   1.456       .  S
C960        C963   1.453       .  S
C961        N968   1.157       .  T
C962        N967   1.157   1_655  T
C963        N965   1.157       .  T
C964        N966   1.157       .  T
C969        C970   1.406       .  A
C969        C974   1.412       .  A
C970        C971   1.400       .  A
C970        C975   1.453   1_565  S
C971        C972   1.405       .  A
C971        C978   1.445       .  S
C972        C973   1.402       .  A
C973        C974   1.400       .  A
C973        C976   1.442       .  S
C974        C977   1.448       .  S
C975        N982   1.157       .  T
C976        N981   1.154       .  T
C977        N979   1.156       .  T
C978        N980   1.157       .  T
C983        C984   1.408       .  A
C983        C988   1.444       .  A
C984        C985   1.429       .  A
C984        C989   1.452       .  S
C985        C986   1.449   1_565  A
C985        C992   1.454       .  S
C986        C987   1.402       .  A
C987        C988   1.433   1_545  A
C987        C990   1.448       .  S
C988        C991   1.446       .  S
C989        N996   1.157       .  T
C990        N995   1.157       .  T
C991        N993   1.157       .  T
C992        N994   1.158       .  T
C997        C998   1.433       .  A
C997       C1002   1.420       .  A
C998        C999   1.419       .  A
C998       C1003   1.452       .  S
C999       C1000   1.410       .  A
C999       C1006   1.452       .  S
C1000      C1001   1.422       .  A
C1001      C1002   1.424       .  A
C1001      C1004   1.451       .  S
C1002      C1005   1.450       .  S
C1003      N1010   1.157       .  T
C1004      N1009   1.157   1_565  T
C1005      N1007   1.157   1_565  T
C1006      N1008   1.157       .  T
C1011      C1012   1.405       .  A
C1011      C1016   1.424       .  A
C1012      C1013   1.408       .  A
C1012      C1017   1.449       .  S
C1013      C1014   1.418       .  A
C1013      C1020   1.451       .  S
C1014      C1015   1.402       .  A
C1015      C1016   1.405       .  A
C1015      C1018   1.452       .  S
C1016      C1019   1.450       .  S
C1017      N1024   1.157   1_545  T
C1018      N1023   1.157       .  T
C1019      N1021   1.158       .  T
C1020      N1022   1.157       .  T
