geometry optimzed in LAMMPS
_audit_creation_date              2020-12-01 
_audit_creation_method            'lammps2cif' 
_symmetry_space_group_name_H-M    'P1' 
_symmetry_Int_Tables_number       1 
_symmetry_cell_setting            triclinic 
loop_ 
_symmetry_equiv_pos_as_xyz 
  x,y,z 
_cell_length_a                    25.84438077 
_cell_length_b                    25.721677906620666 
_cell_length_c                    31.24053935036066 
_cell_angle_alpha                 89.86214579010304 
_cell_angle_beta                  89.84973330932698 
_cell_angle_gamma                 91.33023435758794 
loop_ 
_atom_site_label 
_atom_site_type_symbol 
_atom_site_fract_x 
_atom_site_fract_y 
_atom_site_fract_z 
_atom_site_charge 
In1        In  0.83260422  0.47438688  0.89890938     1.36900
C2          C  0.86746831  0.54096022  0.83971658     0.77700
O3          O  0.84733826  0.53151731  0.95014120    -0.60700
O4          O  0.89777186  0.46732903  0.94593885    -0.51600
C5          C  0.74098287  0.46143390  0.93652284     0.70400
O6          O  0.75136036  0.49968384  0.91223163    -0.46500
C7          C  0.84914136  0.38954352  0.85463399     0.75100
O8          O  0.82171297  0.52268877  0.83840786    -0.58400
O9          O  0.87268938  0.39912847  0.88921669    -0.48500
O10         O  0.89314543  0.52660335  0.87149452    -0.54800
C11         C  0.88659013  0.50915170  0.96477689     0.85300
O12         O  0.77730421  0.42997097  0.94061668    -0.56700
O13         O  0.81516631  0.42173116  0.84485108    -0.60000
In14       In  0.05471545  0.64933817  0.16545625     1.36900
C15         C  0.00569817  0.60269906  0.23051390     0.77700
O16         O  0.98571358  0.63385697  0.12581249    -0.60700
O17         O  0.05374736  0.59288105  0.11011780    -0.51600
C18         C  0.05902156  0.74336740  0.13037896     0.70400
O19         O  0.02480442  0.73008481  0.15755998    -0.46500
C20         C  0.14461406  0.64086861  0.20346066     0.75100
O21         O  0.00123183  0.65086754  0.22319190    -0.58400
O22         O  0.13356059  0.61599061  0.16960290    -0.48500
O23         O  0.03364095  0.57928614  0.20404584    -0.54800
C24         C  0.00676411  0.60119605  0.10176940     0.85300
O25         O  0.09236780  0.70950262  0.12279860    -0.56700
O26         O  0.11154882  0.67359206  0.21472921    -0.60000
In27       In  0.51185473  0.72363694  0.17577846     1.36900
C28         C  0.43907461  0.74882766  0.23217182     0.77700
O29         O  0.56850755  0.71828551  0.22891882    -0.60700
O30         O  0.58110233  0.77802145  0.18304698    -0.51600
C31         C  0.53166248  0.62904736  0.14663474     0.70400
O32         O  0.49096083  0.63878867  0.16727936    -0.46500
C33         C  0.47832626  0.76563307  0.10374887     0.75100
O34         O  0.46427812  0.70768937  0.23550543    -0.58400
O35         O  0.46141023  0.72266455  0.11832227    -0.48500
O36         O  0.44981631  0.77552999  0.19948666    -0.54800
C37         C  0.59594028  0.75688259  0.21723131     0.85300
O38         O  0.56262052  0.66736355  0.14257744    -0.56700
O39         O  0.51412704  0.78665948  0.12562700    -0.60000
In40       In  0.33654605  0.89100562  0.88454624     1.36900
C41         C  0.38245670  0.85469641  0.95412637     0.77700
O42         O  0.28474405  0.93965823  0.92446156    -0.60700
O43         O  0.25201501  0.87087703  0.89816060    -0.51600
C44         C  0.38524677  0.97009344  0.84454343     0.70400
O45         O  0.40839614  0.93521705  0.86488011    -0.46500
C46         C  0.34760889  0.82450448  0.81998240     0.75100
O47         O  0.35249782  0.82797353  0.93071488    -0.58400
O48         O  0.36988861  0.81990538  0.85548314    -0.48500
O49         O  0.38940343  0.90117218  0.94175101    -0.54800
C50         C  0.24573498  0.90957268  0.92229672     0.85300
O51         O  0.33653015  0.96601335  0.84643596    -0.56700
O52         O  0.31549280  0.86073970  0.81845456    -0.60000
In53       In  0.59867306  0.15913769  0.17100384     1.36900
C54         C  0.66270169  0.14169816  0.23593940     0.77700
O55         O  0.52449505  0.15926936  0.20827693    -0.60700
O56         O  0.55205954  0.08692238  0.18654392    -0.51600
C57         C  0.57746587  0.25293320  0.14039670     0.70400
O58         O  0.61594445  0.24500702  0.16417954    -0.46500
C59         C  0.63226380  0.11802249  0.09850061     0.75100
O60         O  0.62470205  0.17121276  0.23924231    -0.58400
O61         O  0.59050299  0.10303225  0.11620181    -0.48500
O62         O  0.67161501  0.12668084  0.19839927    -0.54800
C63         C  0.51844895  0.11044780  0.20798371     0.85300
O64         O  0.54887656  0.21332409  0.13429190    -0.56700
O65         O  0.65646372  0.15377903  0.11817520    -0.60000
In66       In  0.77724554  0.97573940  0.88854079     1.36900
C67         C  0.72470887  0.01895594  0.95195948     0.77700
O68         O  0.82590920  0.93686344  0.93841013    -0.60700
O69         O  0.86354353  0.98983319  0.89615582    -0.51600
C70         C  0.73391936  0.89198407  0.85204136     0.70400
O71         O  0.70999501  0.92076579  0.87766702    -0.46500
C72         C  0.76363727  0.03946509  0.82136203     0.75100
O73         O  0.71461862  0.97311120  0.93932143    -0.58400
O74         O  0.78670546  0.99709105  0.81802948    -0.48500
O75         O  0.76117008  0.04176847  0.93186746    -0.54800
C76         C  0.86739176  0.96025795  0.92816936     0.85300
O77         O  0.78135677  0.90372547  0.84799071    -0.56700
O78         O  0.75195094  0.05079504  0.85922567    -0.60000
In79       In  0.06597404  0.22582383  0.16542260     1.36900
C80         C  0.11611696  0.26067152  0.23428030     0.77700
O81         O  0.13888932  0.25206183  0.13279107    -0.60700
O82         O  0.06852081  0.28397921  0.11134934    -0.51600
C83         C  0.06086921  0.13252504  0.12788724     0.70400
O84         O  0.07975129  0.13890084  0.16484878    -0.46500
C85         C  0.97241849  0.23763421  0.19812624     0.75100
O86         O  0.07830290  0.28316992  0.21779029    -0.58400
O87         O  0.99041017  0.26774529  0.16936172    -0.48500
O88         O  0.12839307  0.21891284  0.21590635    -0.54800
C89         C  0.11710447  0.28236473  0.10707875     0.85300
O90         O  0.04387275  0.17341031  0.11120212    -0.56700
O91         O  0.00030490  0.19927146  0.20632777    -0.60000
In92       In  0.27439238  0.41112626  0.89524047     1.36900
C93         C  0.23435631  0.34071975  0.84247882     0.77700
O94         O  0.26473018  0.35408733  0.94842654    -0.60700
O95         O  0.21650949  0.42016813  0.94817601    -0.51600
C96         C  0.36871309  0.42607780  0.92760976     0.70400
O97         O  0.35745429  0.38740344  0.90426915    -0.46500
C98         C  0.25184677  0.49375273  0.84761174     0.75100
O99         O  0.28115244  0.35577986  0.83940282    -0.58400
O100        O  0.23315639  0.48660464  0.88461315    -0.48500
O101        O  0.20981442  0.35967194  0.87326294    -0.54800
C102        C  0.22877297  0.37828544  0.96649474     0.85300
O103        O  0.33262075  0.45779919  0.93187395    -0.56700
O104        O  0.28398476  0.46019828  0.83641440    -0.60000
C105        C  0.05848010  0.93681354  0.02860529    -0.02400
C106        C  0.55021514  0.44372155  0.03988941    -0.02400
In107      In  0.00939857  0.21833833  0.67990257     1.36900
C108        C  0.94076622  0.25383373  0.73504634     0.77700
O109        O  0.05993954  0.20805115  0.73715205    -0.60700
O110        O  0.08174579  0.26596776  0.69162460    -0.51600
C111        C  0.02362448  0.12423237  0.64739288     0.70400
O112        O  0.98334225  0.13545293  0.66808566    -0.46500
C113        C  0.97642464  0.26280066  0.60871180     0.75100
O114        O  0.95922666  0.20903263  0.73891281    -0.58400
O115        O  0.01905752  0.27633340  0.62581779    -0.48500
O116        O  0.95516861  0.27837160  0.70212288    -0.54800
C117        C  0.09123892  0.24437419  0.72708278     0.85300
O118        O  0.05750465  0.16024021  0.64560350    -0.56700
O119        O  0.95229498  0.22629958  0.62783075    -0.60000
In120      In  0.84112755  0.39342169  0.38860462     1.36900
C121        C  0.84776670  0.32620283  0.32411408     0.77700
O122        O  0.84570197  0.46898515  0.35129110    -0.60700
O123        O  0.91558208  0.43486216  0.37079947    -0.51600
C124        C  0.75052825  0.41438426  0.42556056     0.70400
O125        O  0.75479872  0.38120614  0.39619415    -0.46500
C126        C  0.88609433  0.35380011  0.45728818     0.75100
O127        O  0.82373927  0.36810308  0.32080976    -0.58400
O128        O  0.89882023  0.39810995  0.44257908    -0.48500
O129        O  0.86370166  0.31684171  0.36130260    -0.54800
C130        C  0.89457156  0.47104154  0.35039247     0.85300
O131        O  0.79192108  0.43919907  0.43360493    -0.56700
O132        O  0.85133961  0.33015563  0.43618471    -0.60000
In133      In  0.57130376  0.72356495  0.66521530     1.36900
C134        C  0.62584712  0.76166687  0.73087038     0.77700
O135        O  0.64144541  0.74762169  0.62778621    -0.60700
O136        O  0.57203519  0.78710814  0.61499172    -0.51600
C137        C  0.56432445  0.62984685  0.62758018     0.70400
O138        O  0.58112557  0.63537638  0.66533537    -0.46500
C139        C  0.47754106  0.73515631  0.69828428     0.75100
O140        O  0.58481886  0.78119839  0.71731223    -0.58400
O141        O  0.49204558  0.75810502  0.66429122    -0.48500
O142        O  0.63917507  0.72093984  0.71143792    -0.54800
C143        C  0.61948503  0.78222218  0.60625037     0.85300
O144        O  0.55034986  0.67156113  0.61040487    -0.56700
O145        O  0.50975486  0.70362553  0.71307036    -0.60000
In146      In  0.77467485  0.91495076  0.39439889     1.36900
C147        C  0.74156054  0.84863504  0.33403367     0.77700
O148        O  0.76717593  0.86549351  0.45253168    -0.60700
O149        O  0.70895729  0.92110733  0.44192157    -0.51600
C150        C  0.86945416  0.92377163  0.42664981     0.70400
O151        O  0.85544745  0.88549437  0.40382598    -0.46500
C152        C  0.74974688  0.00414469  0.35725774     0.75100
O153        O  0.77414024  0.88452515  0.32623682    -0.58400
O154        O  0.72205331  0.98260290  0.38597989    -0.48500
O155        O  0.73045744  0.84371393  0.37293688    -0.54800
C156        C  0.72537746  0.88467135  0.46517558     0.85300
O157        O  0.83621813  0.95854939  0.43036875    -0.56700
O158        O  0.79135766  0.98124235  0.34949713    -0.60000
In159      In  0.08404209  0.65904057  0.66888372     1.36900
C160        C  0.15080086  0.62239083  0.72572712     0.77700
O161        O  0.03320418  0.66973411  0.72522484    -0.60700
O162        O  0.00653142  0.61689500  0.67761581    -0.51600
C163        C  0.07330033  0.75439725  0.63830512     0.70400
O164        O  0.11281581  0.74109912  0.65896254    -0.46500
C165        C  0.12086370  0.61588868  0.59787506     0.75100
O166        O  0.13677378  0.66910356  0.72677192    -0.58400
O167        O  0.07944363  0.59953249  0.61562625    -0.48500
O168        O  0.13132878  0.59592255  0.69576748    -0.54800
C169        C  0.99904567  0.63675234  0.71407349     0.85300
O170        O  0.03834408  0.71958532  0.63512403    -0.56700
O171        O  0.14185206  0.65466354  0.61604156    -0.60000
In172      In  0.27364709  0.47238180  0.39047063     1.36900
C173        C  0.26519625  0.54215504  0.32721362     0.77700
O174        O  0.27399125  0.39631521  0.35374315    -0.60700
O175        O  0.20243953  0.42439069  0.37543958    -0.51600
C176        C  0.36495117  0.45453308  0.42700494     0.70400
O177        O  0.36113208  0.47764155  0.39161214    -0.46500
C178        C  0.22223007  0.51429281  0.45556204     0.75100
O179        O  0.25600407  0.55203650  0.36578227    -0.58400
O180        O  0.21132947  0.46917417  0.44163776    -0.48500
O181        O  0.28298322  0.49762594  0.32124502    -0.54800
C182        C  0.22543013  0.39009851  0.35441172     0.85300
O183        O  0.32251062  0.43785679  0.44205394    -0.56700
O184        O  0.25936133  0.53694871  0.43620202    -0.60000
In185      In  0.54620174  0.14780812  0.65983211     1.36900
C186        C  0.49311558  0.10238567  0.72312844     0.77700
O187        O  0.47567733  0.13427842  0.62017663    -0.60700
O188        O  0.54309603  0.09290097  0.60393953    -0.51600
C189        C  0.55613681  0.24174110  0.62533445     0.70400
O190        O  0.52451287  0.23178708  0.65538893    -0.46500
C191        C  0.63659520  0.13330491  0.69754748     0.75100
O192        O  0.48950282  0.15063011  0.71565725    -0.58400
O193        O  0.62347613  0.10988023  0.66353849    -0.48500
O194        O  0.52207725  0.07861250  0.69768067    -0.54800
C195        C  0.49605583  0.10133348  0.59596116     0.85300
O196        O  0.58418034  0.20452066  0.61448817    -0.56700
O197        O  0.60497883  0.16688276  0.70997687    -0.60000
In198      In  0.33199207  0.96272370  0.39236872     1.36900
C199        C  0.37952931  0.01110350  0.32794673     0.77700
O200        O  0.35786028  0.02785274  0.43407215    -0.60700
O201        O  0.38506578  0.95257680  0.44891877    -0.51600
C202        C  0.23757053  0.96359938  0.42620582     0.70400
O203        O  0.25601067  0.00199666  0.40546430    -0.46500
C204        C  0.33771234  0.87281064  0.35252182     0.75100
O205        O  0.33288151  0.02025702  0.33725470    -0.58400
O206        O  0.36196982  0.88234808  0.38690971    -0.48500
O207        O  0.40088639  0.97865211  0.35192170    -0.54800
C208        C  0.38477424  0.00030490  0.45832655     0.85300
O209        O  0.26647235  0.92485475  0.42771579    -0.56700
O210        O  0.30663255  0.90757093  0.34124801    -0.60000
C211        C  0.05391849  0.94408740  0.53548160    -0.02400
C212        C  0.55764790  0.43608136  0.52544592    -0.02400
C213        C  0.09941853  0.95267397  0.50318821    -0.05300
C214        C  0.12522728  0.00132713  0.49726885    -0.32800
C215        C  0.16870240  0.00656386  0.47034236     0.36500
C216        C  0.18696197  0.96308905  0.44822166    -0.05700
C217        C  0.15882083  0.91621638  0.45054892    -0.32700
C218        C  0.11471656  0.91115239  0.47623827     0.36400
H219        H  0.11238034  0.03567869  0.51361088     0.16800
O220        O  0.19501165  0.05341194  0.46824459    -0.60200
H221        H  0.17178900  0.88260513  0.43299280     0.16800
O222        O  0.08982921  0.86351868  0.47794098    -0.60300
H223        H  0.07305656  0.85898494  0.44953505     0.43800
H224        H  0.17774990  0.07308064  0.44516451     0.43700
C225        C  0.55668013  0.29117412  0.60164383    -0.05300
C226        C  0.51719102  0.29919982  0.57233974    -0.32800
C227        C  0.51745828  0.34311851  0.54587554     0.36500
C228        C  0.55529777  0.38405381  0.55171174    -0.05700
C229        C  0.59639508  0.37373818  0.58028792    -0.32700
C230        C  0.59758378  0.32771113  0.60451604     0.36400
H231        H  0.48721322  0.26946693  0.56805778     0.16800
O232        O  0.48202950  0.34334793  0.51324390    -0.60200
H233        H  0.62801711  0.40176778  0.58377082     0.16800
O234        O  0.63918004  0.31849081  0.63037443    -0.60300
H235        H  0.63098701  0.33542696  0.65800576     0.43800
H236        H  0.49135854  0.31450338  0.49378886     0.43700
C237        C  0.46687937  0.07442395  0.56145250    -0.05300
C238        C  0.48959153  0.03339293  0.53904247    -0.32800
C239        C  0.46262469  0.00729938  0.50631440     0.36500
C240        C  0.41283330  0.02317108  0.49484389    -0.05700
C241        C  0.38995980  0.06370620  0.51736212    -0.32700
C242        C  0.41594891  0.08849983  0.55099196     0.36400
H243        H  0.52830489  0.02133609  0.54695244     0.16800
O244        O  0.48553440  0.96705896  0.48532816    -0.60200
H245        H  0.35134061  0.07587047  0.50914597     0.16800
O246        O  0.39124368  0.12681495  0.57298746    -0.60300
H247        H  0.37034631  0.10828318  0.59517152     0.43800
H248        H  0.50904496  0.98383608  0.46387809     0.43700
C249        C  0.41427331  0.44998801  0.45048342    -0.05300
C250        C  0.41301181  0.44719264  0.49521642    -0.32800
C251        C  0.45865110  0.44533170  0.51907726     0.36500
C252        C  0.50764542  0.44327219  0.49833151    -0.05700
C253        C  0.50836558  0.44948494  0.45326729    -0.32700
C254        C  0.46246296  0.45168837  0.42953972     0.36400
H255        H  0.37628442  0.44703266  0.51204648     0.16800
O256        O  0.45472126  0.44110925  0.56276611    -0.60200
H257        H  0.54429731  0.45300029  0.43572213     0.16800
O258        O  0.46525957  0.45506585  0.38577586    -0.60300
H259        H  0.46796727  0.41862050  0.37575717     0.43800
H260        H  0.44564583  0.47626216  0.57289722     0.43700
C261        C  0.06965493  0.80538836  0.61705299    -0.05300
C262        C  0.11382945  0.82768684  0.59803689    -0.32800
C263        C  0.11104345  0.87284918  0.57302406     0.36500
C264        C  0.06221539  0.89607219  0.56524527    -0.05700
C265        C  0.01930073  0.87610121  0.58881535    -0.32700
C266        C  0.02235172  0.83057902  0.61321783     0.36400
H267        H  0.15086113  0.80922408  0.60162155     0.16800
O268        O  0.15644073  0.89315893  0.55643457    -0.60200
H269        H  0.98215879  0.89450668  0.58648535     0.16800
O270        O  0.97861077  0.81065117  0.63272504    -0.60300
H271        H  0.97772850  0.82749182  0.66129393     0.43800
H272        H  0.17897757  0.90158580  0.58132809     0.43700
C273        C  0.19433954  0.53962702  0.49135347    -0.05300
C274        C  0.20912730  0.59055103  0.50300782    -0.32800
C275        C  0.18482432  0.61604082  0.53677063     0.36500
C276        C  0.14441236  0.59090211  0.55988762    -0.05700
C277        C  0.12879296  0.54031527  0.54783736    -0.32700
C278        C  0.15372636  0.51446461  0.51425193     0.36400
H279        H  0.24014183  0.61088508  0.48604235     0.16800
O280        O  0.20166531  0.66535815  0.54720332    -0.60200
H281        H  0.09812147  0.52008194  0.56529113     0.16800
O282        O  0.13828485  0.46455803  0.50446228    -0.60300
H283        H  0.15915572  0.44205730  0.52333361     0.43800
H284        H  0.17811431  0.68895220  0.53178897     0.43700
C285        C  0.91915844  0.92688342  0.44972258    -0.05300
C286        C  0.94374462  0.97528749  0.45565322    -0.32800
C287        C  0.98772872  0.98046573  0.48150593     0.36500
C288        C  0.00622406  0.93726957  0.50506498    -0.05700
C289        C  0.98226845  0.88818665  0.49696214    -0.32700
C290        C  0.93948296  0.88292748  0.46974200     0.36400
H291        H  0.92870950  0.00950747  0.44015995     0.16800
O292        O  0.01083405  0.02878731  0.48529967    -0.60200
H293        H  0.99673835  0.85302070  0.51103804     0.16800
O294        O  0.91670301  0.83472478  0.46417039    -0.60300
H295        H  0.89177860  0.83058497  0.48822347     0.43800
H296        H  0.02925619  0.03501445  0.45776119     0.43700
C297        C  0.56259850  0.57973953  0.60378247    -0.05300
C298        C  0.56633765  0.58136085  0.55910121    -0.32800
C299        C  0.56479536  0.53593914  0.53455828     0.36500
C300        C  0.56008885  0.48608657  0.55422951    -0.05700
C301        C  0.55493924  0.48497866  0.59946964    -0.32700
C302        C  0.55678309  0.53096229  0.62399393     0.36400
H303        H  0.57108162  0.61839894  0.54277275     0.16800
O304        O  0.57019366  0.54063811  0.49099617    -0.60200
H305        H  0.54793210  0.44883759  0.61637345     0.16800
O306        O  0.55019913  0.52779594  0.66748958    -0.60300
H307        H  0.58563694  0.52448527  0.67927862     0.43800
H308        H  0.53675682  0.55399898  0.48067010     0.43700
C309        C  0.64711577  0.81312561  0.57271899    -0.05300
C310        C  0.61925469  0.84377456  0.54384461    -0.32800
C311        C  0.64423949  0.86884815  0.50926665     0.36500
C312        C  0.69804776  0.86408624  0.50352020    -0.05700
C313        C  0.72603876  0.83523036  0.53334443    -0.32700
C314        C  0.70125865  0.81016617  0.56770391     0.36400
H315        H  0.57768945  0.84676578  0.54710699     0.16800
O316        O  0.61532026  0.89589973  0.48038782    -0.60200
H317        H  0.76747121  0.83125345  0.52965643     0.16800
O318        O  0.73034586  0.78154830  0.59541339    -0.60300
H319        H  0.74600085  0.80721818  0.61546483     0.43800
H320        H  0.60736573  0.87088361  0.45706953     0.43700
C321        C  0.60809986  0.43185608  0.49783686    -0.05300
C322        C  0.65291783  0.46274691  0.50671397    -0.32800
C323        C  0.69848791  0.45864865  0.48281843     0.36500
C324        C  0.70171013  0.42181539  0.44976173    -0.05700
C325        C  0.65877112  0.38895692  0.44200125    -0.32700
C326        C  0.61314243  0.39273207  0.46610147     0.36400
H327        H  0.65405459  0.48979265  0.53309301     0.16800
O328        O  0.74027038  0.48989801  0.49325842    -0.60200
H329        H  0.66077856  0.35915398  0.41764161     0.16800
O330        O  0.57318232  0.35835504  0.45765322    -0.60300
H331        H  0.58423197  0.32453886  0.46943667     0.43800
H332        H  0.73470588  0.52318725  0.47794408     0.43700
C333        C  0.02992725  0.07440642  0.62461889    -0.05300
C334        C  0.07940990  0.05468730  0.61855124    -0.32800
C335        C  0.08723467  0.01138699  0.59217783     0.36500
C336        C  0.04579821  0.98972451  0.56770154    -0.05700
C337        C  0.99540897  0.00670707  0.57795498    -0.32700
C338        C  0.98743091  0.04807220  0.60610673     0.36400
H339        H  0.11229778  0.07274306  0.63460483     0.16800
O340        O  0.13530642  0.98995120  0.59113338    -0.60200
H341        H  0.96140257  0.98788123  0.56442079     0.16800
O342        O  0.93791547  0.06379019  0.61375111    -0.60300
H343        H  0.92631763  0.04391971  0.63943012     0.43800
H344        H  0.15985714  0.01806002  0.58145658     0.43700
C345        C  0.95493989  0.28726157  0.56981380    -0.05300
C346        C  0.91040535  0.26454384  0.55142045    -0.32800
C347        C  0.88762553  0.28606714  0.51526130     0.36500
C348        C  0.90951517  0.33115464  0.49612937    -0.05700
C349        C  0.95364463  0.35463959  0.51480330    -0.32700
C350        C  0.97626382  0.33318485  0.55148261     0.36400
H351        H  0.89259407  0.22986282  0.56531314     0.16800
O352        O  0.84264295  0.26370313  0.50001616    -0.60200
H353        H  0.97058419  0.38982566  0.50106265     0.16800
O354        O  0.01776003  0.35853882  0.56994728    -0.60300
H355        H  0.04869654  0.34419124  0.55577299     0.43800
H356        H  0.85374262  0.23555359  0.48068982     0.43700
C357        C  0.13420773  0.26185369  0.75527112    -0.05300
C358        C  0.16931974  0.30041771  0.74049435    -0.32800
C359        C  0.20600078  0.32302568  0.76797623     0.36500
C360        C  0.20775777  0.30742800  0.81105360    -0.05700
C361        C  0.17470187  0.26710871  0.82549905    -0.32700
C362        C  0.13810474  0.24417030  0.79800765     0.36400
H363        H  0.16672050  0.31500736  0.70803200     0.16800
O364        O  0.23563893  0.36450431  0.75370708    -0.60200
H365        H  0.17529800  0.25540420  0.85885122     0.16800
O366        O  0.10475133  0.20655139  0.81391896    -0.60300
H367        H  0.07763364  0.22576447  0.82959624     0.43800
H368        H  0.27044712  0.35037566  0.74843322     0.43700
C369        C  0.23469029  0.53509028  0.81800804    -0.05300
C370        C  0.24459744  0.52931996  0.77409267    -0.32800
C371        C  0.21971533  0.56001045  0.74387233     0.36500
C372        C  0.18564328  0.59864897  0.75722699    -0.05700
C373        C  0.17970840  0.60827580  0.80117193    -0.32700
C374        C  0.20368198  0.57646020  0.83162226     0.36400
H375        H  0.26888440  0.49841399  0.76278312     0.16800
O376        O  0.22769812  0.55089805  0.70111429    -0.60200
H377        H  0.15361159  0.63794335  0.81193172     0.16800
O378        O  0.19400653  0.58407117  0.87431781    -0.60300
H379        H  0.21432328  0.61588587  0.88210586     0.43800
H380        H  0.20687494  0.51905668  0.69452089     0.43700
C381        C  0.41852916  0.43311882  0.95059857    -0.05300
C382        C  0.42729878  0.47895009  0.97378841    -0.32800
C383        C  0.46947878  0.48478543  0.00156456     0.36500
C384        C  0.50411785  0.44306556  0.00767961    -0.05700
C385        C  0.49867778  0.40015566  0.97955457    -0.32700
C386        C  0.45572737  0.39414877  0.95248906     0.36400
H387        H  0.40082167  0.51081046  0.97077502     0.16800
O388        O  0.47846336  0.53294577  0.01931110    -0.60200
H389        H  0.52635688  0.36919222  0.98072888     0.16800
O390        O  0.45000790  0.34945027  0.92896638    -0.60300
H391        H  0.43404742  0.32349730  0.94890521     0.43800
H392        H  0.44632059  0.54191717  0.03506384     0.43700
C393        C  0.14420934  0.28384559  0.27093416    -0.05300
C394        C  0.11677973  0.31398317  0.30023450    -0.32800
C395        C  0.14275108  0.34570529  0.32986375     0.36500
C396        C  0.19738932  0.34852230  0.33014272    -0.05700
C397        C  0.22476327  0.31517674  0.30298376    -0.32700
C398        C  0.19851030  0.28281969  0.27362615     0.36400
H399        H  0.07489648  0.31479065  0.29885199     0.16800
O400        O  0.11412902  0.37660569  0.35614732    -0.60200
H401        H  0.26668726  0.31636377  0.30269568     0.16800
O402        O  0.22648054  0.25476434  0.24476967    -0.60300
H403        H  0.23046366  0.22000660  0.25834475     0.43800
H404        H  0.11133399  0.35725070  0.38370435     0.43700
C405        C  0.92634953  0.24977231  0.22426449    -0.05300
C406        C  0.89688358  0.29347392  0.21451402    -0.32800
C407        C  0.86408386  0.31482710  0.24534846     0.36500
C408        C  0.86263639  0.29393041  0.28712358    -0.05700
C409        C  0.88669280  0.24651656  0.29488788    -0.32700
C410        C  0.91758408  0.22391095  0.26361448     0.36400
H411        H  0.90194811  0.31327229  0.18408956     0.16800
O412        O  0.83823697  0.35925621  0.23563876    -0.60200
H413        H  0.88502989  0.22897530  0.32645253     0.16800
O414        O  0.94354120  0.17970520  0.27386282    -0.60300
H415        H  0.92053324  0.15054155  0.26426892     0.43800
H416        H  0.80312154  0.34706999  0.22675332     0.43700
C417        C  0.06085362  0.98779697  0.05617522    -0.05300
C418        C  0.05874694  0.98742872  0.10159625    -0.32800
C419        C  0.05967696  0.03376578  0.12552796     0.36500
C420        C  0.06012126  0.08223253  0.10458625    -0.05700
C421        C  0.05969490  0.08321875  0.05984112    -0.32700
C422        C  0.06063867  0.03740568  0.03581163     0.36400
H423        H  0.05504977  0.95149572  0.11934090     0.16800
O424        O  0.05724505  0.03109333  0.16934691    -0.60200
H425        H  0.05945568  0.12010275  0.04300335     0.16800
O426        O  0.06002053  0.04162018  0.99201072    -0.60300
H427        H  0.09341648  0.05874108  0.98387895     0.43800
H428        H  0.09289223  0.02306193  0.17865164     0.43700
C429        C  0.14654290  0.31169990  0.07383284    -0.05300
C430        C  0.19828710  0.29904173  0.06603031    -0.32800
C431        C  0.22585854  0.32144157  0.03188376     0.36500
C432        C  0.20210644  0.35795432  0.00511713    -0.05700
C433        C  0.15134455  0.37290079  0.01426542    -0.32700
C434        C  0.12352741  0.35006339  0.04829084     0.36400
H435        H  0.21709140  0.27022427  0.08556017     0.16800
O436        O  0.27553284  0.30613491  0.02424441    -0.60200
H437        H  0.13248739  0.40103634  0.99409271     0.16800
O438        O  0.07349612  0.36448655  0.05540201    -0.60300
H439        H  0.07607312  0.39331706  0.07645790     0.43800
H440        H  0.29761654  0.32811144  0.04320328     0.43700
C441        C  0.68218411  0.11859543  0.72334508    -0.05300
C442        C  0.70893246  0.07332722  0.71295745    -0.32800
C443        C  0.74092426  0.04950386  0.74314448     0.36500
C444        C  0.74623955  0.07099982  0.78446583    -0.05700
C445        C  0.72522840  0.11989528  0.79250448    -0.32700
C446        C  0.69380549  0.14390391  0.76227158     0.36400
H447        H  0.70187898  0.05394919  0.68270578     0.16800
O448        O  0.76360407  0.00343528  0.73292581    -0.60200
H449        H  0.73007285  0.13796986  0.82357816     0.16800
O450        O  0.67124173  0.18990402  0.77275713    -0.60300
H451        H  0.69615639  0.21739426  0.76298933     0.43800
H452        H  0.73555142  0.97656524  0.73510165     0.43700
C453        C  0.70772981  0.85094765  0.82602684    -0.05300
C454        C  0.73527722  0.82602222  0.79329755    -0.32800
C455        C  0.70958258  0.79408624  0.76335810     0.36500
C456        C  0.65555667  0.78656408  0.76591031    -0.05700
C457        C  0.62844298  0.80932149  0.79972361    -0.32700
C458        C  0.65398256  0.84096382  0.82974142     0.36400
H459        H  0.77648907  0.83334217  0.78952445     0.16800
O460        O  0.73712983  0.77326204  0.73022699    -0.60200
H461        H  0.58682363  0.80383485  0.80212271     0.16800
O462        O  0.62565589  0.86296733  0.86187376    -0.60300
H463        H  0.61084246  0.89471760  0.84902903     0.43800
H464        H  0.73590529  0.79945065  0.70686446     0.43700
C465        C  0.00800566  0.94213271  0.00140574    -0.05300
C466        C  0.00946577  0.94988662  0.95642577    -0.32800
C467        C  0.96432831  0.95621165  0.93247038     0.36500
C468        C  0.91581816  0.95447071  0.95267723    -0.05700
C469        C  0.91353677  0.94888666  0.99726233    -0.32700
C470        C  0.95877170  0.94502903  0.02163709     0.36400
H471        H  0.04564059  0.95306257  0.93916250     0.16800
O472        O  0.96820449  0.96415044  0.88914461    -0.60200
H473        H  0.87645778  0.94907280  0.01354337     0.16800
O474        O  0.95429477  0.94211886  0.06536056    -0.60300
H475        H  0.94845076  0.97848936  0.07495709     0.43800
H476        H  0.96932366  0.92886430  0.87651217     0.43700
C477        C  0.73285742  0.04997000  0.33238638    -0.05300
C478        C  0.68249905  0.06808704  0.33825018    -0.32800
C479        C  0.66105281  0.10296358  0.30916483     0.36500
C480        C  0.68986481  0.11996456  0.27320505    -0.05700
C481        C  0.74170329  0.10563424  0.26935961    -0.32700
C482        C  0.76353170  0.07146386  0.29894330     0.36400
H483        H  0.65821617  0.05239648  0.36371922     0.16800
O484        O  0.60976150  0.11467376  0.31318761    -0.60200
H485        H  0.76442932  0.11855763  0.24197122     0.16800
O486        O  0.81350797  0.05631162  0.29277800    -0.60300
H487        H  0.83517782  0.08159201  0.30950903     0.43800
H488        H  0.60927763  0.14592769  0.33174478     0.43700
C489        C  0.47719700  0.08327008  0.23299080    -0.05300
C490        C  0.43923196  0.11244642  0.25377849    -0.32800
C491        C  0.40464622  0.08890431  0.28296242     0.36500
C492        C  0.40832250  0.03562687  0.29221312    -0.05700
C493        C  0.44439953  0.00596641  0.26991572    -0.32700
C494        C  0.47805662  0.02908698  0.23999191     0.36400
H495        H  0.43753552  0.15403556  0.24862560     0.16800
O496        O  0.36945795  0.11885446  0.30391242    -0.60200
H497        H  0.44733691  0.96473613  0.27649824     0.16800
O498        O  0.51359429  0.99874846  0.21984991    -0.60300
H499        H  0.49631227  0.98674469  0.19313929     0.43800
H500        H  0.38641647  0.12895341  0.33124623     0.43700
C501        C  0.56737571  0.30353113  0.11958880    -0.05300
C502        C  0.52138335  0.30976824  0.09662599    -0.32800
C503        C  0.51230885  0.35518157  0.07312065     0.36500
C504        C  0.55162794  0.39472788  0.06966054    -0.05700
C505        C  0.59519818  0.38999589  0.09672166    -0.32700
C506        C  0.60377356  0.34492064  0.12050301     0.36400
H507        H  0.49177605  0.27923870  0.09698399     0.16800
O508        O  0.46437199  0.36035204  0.05509105    -0.60200
H509        H  0.62478670  0.42051395  0.09727673     0.16800
O510        O  0.64868310  0.34137551  0.14351883    -0.60300
H511        H  0.67545518  0.33152913  0.12237448     0.43800
H512        H  0.43977112  0.36337288  0.07935410     0.43700
C513        C  0.65221561  0.09471749  0.05865164    -0.05300
C514        C  0.63298032  0.04604490  0.04483302    -0.32800
C515        C  0.65486129  0.02117881  0.00936341     0.36500
C516        C  0.69726895  0.04470374  0.98759671    -0.05700
C517        C  0.71470826  0.09437523  0.00042245    -0.32700
C518        C  0.69215973  0.11962158  0.03504654     0.36400
H519        H  0.60164091  0.02662263  0.06209500     0.16800
O520        O  0.63523137  0.97357427  0.99697032    -0.60200
H521        H  0.74643730  0.11389704  0.98373422     0.16800
O522        O  0.70988048  0.16858278  0.04567078    -0.60300
H523        H  0.69172396  0.19236003  0.02604183     0.43800
H524        H  0.60299383  0.98109021  0.98121725     0.43700
C525        C  0.36358136  0.79366073  0.78255709    -0.05300
C526        C  0.38231958  0.74350541  0.78917313    -0.32800
C527        C  0.41469076  0.72061616  0.75895210     0.36500
C528        C  0.42985021  0.74859168  0.72192036    -0.05700
C529        C  0.40543568  0.79557309  0.71268941    -0.32700
C530        C  0.37252087  0.81824048  0.74277834     0.36400
H531        H  0.37515041  0.72369971  0.81934233     0.16800
O532        O  0.43511807  0.67310868  0.76797912    -0.60200
H533        H  0.41576385  0.81737918  0.68408454     0.16800
O534        O  0.35424054  0.86700176  0.73495707    -0.60300
H535        H  0.38159841  0.89146247  0.74549843     0.43800
H536        H  0.41343732  0.64759725  0.75171290     0.43700
C537        C  0.41352165  0.00994596  0.81848237    -0.05300
C538        C  0.46600391  0.00242371  0.80934369    -0.32800
C539        C  0.49252879  0.03410260  0.77983157     0.36500
C540        C  0.46691048  0.07455978  0.75884893    -0.05700
C541        C  0.41556725  0.08490298  0.77019102    -0.32700
C542        C  0.38883482  0.05295157  0.79993540     0.36400
H543        H  0.48631495  0.97055169  0.82390529     0.16800
O544        O  0.54398113  0.02570438  0.77207852    -0.60200
H545        H  0.39556316  0.11638823  0.75478373     0.16800
O546        O  0.33839880  0.06337050  0.80978652    -0.60300
H547        H  0.34040141  0.08898975  0.83334514     0.43800
H548        H  0.54473313  0.99470696  0.75340363     0.43700
C549        C  0.19769237  0.91821377  0.94747516    -0.05300
C550        C  0.15627788  0.88210977  0.94579050    -0.32800
C551        C  0.11170365  0.88822330  0.97102113     0.36500
C552        C  0.10732892  0.93132501  0.99925017    -0.05700
C553        C  0.15024239  0.96632649  0.00148677    -0.32700
C554        C  0.19405276  0.96072197  0.97561356     0.36400
H555        H  0.15850219  0.84848938  0.92509490     0.16800
O556        O  0.07279093  0.85109947  0.96859016    -0.60200
H557        H  0.15134796  0.99796675  0.02410632     0.16800
O558        O  0.23405493  0.99634965  0.97950378    -0.60300
H559        H  0.22562174  0.02495095  0.95931145     0.43800
H560        H  0.05837854  0.85393580  0.93917585     0.43700
C561        C  0.40255583  0.76703574  0.26480627    -0.05300
C562        C  0.36056154  0.79686711  0.25204095    -0.32800
C563        C  0.33367238  0.82654383  0.28185512     0.36500
C564        C  0.35019741  0.82810869  0.32486298    -0.05700
C565        C  0.38806166  0.79330428  0.33833736    -0.32700
C566        C  0.41391233  0.76247256  0.30863841     0.36400
H567        H  0.35050179  0.79958509  0.21846292     0.16800
O568        O  0.29369839  0.85644836  0.26802093    -0.60200
H569        H  0.40076862  0.79309911  0.37135753     0.16800
O570        O  0.45445910  0.73321251  0.32214493    -0.60300
H571        H  0.43865994  0.69900970  0.33020285     0.43800
H572        H  0.31036412  0.88751298  0.25449362     0.43700
C573        C  0.64017742  0.77629517  0.24309174    -0.05300
C574        C  0.65068804  0.75125294  0.28199690    -0.32800
C575        C  0.68666278  0.77230665  0.31072884     0.36500
C576        C  0.71384356  0.81880274  0.30054037    -0.05700
C577        C  0.70649754  0.84171733  0.26021933    -0.32700
C578        C  0.66927887  0.82139420  0.23184453     0.36400
H579        H  0.62904628  0.71644861  0.29133796     0.16800
O580        O  0.69254702  0.74873043  0.34977593    -0.60200
H581        H  0.72666884  0.87778609  0.25198506     0.16800
O582        O  0.66015923  0.84725034  0.19426281    -0.60300
H583        H  0.63722644  0.87627788  0.20218202     0.43800
H584        H  0.72223300  0.72522726  0.34606974     0.43700
C585        C  0.54838426  0.48961033  0.07233818    -0.05300
C586        C  0.59060539  0.52483546  0.07777097    -0.32800
C587        C  0.58654738  0.56917007  0.10321421     0.36500
C588        C  0.54072443  0.57815880  0.12614331    -0.05700
C589        C  0.50155716  0.53955394  0.12622795    -0.32700
C590        C  0.50521626  0.49543287  0.10013893     0.36400
H591        H  0.62722083  0.51909875  0.06196913     0.16800
O592        O  0.62778209  0.60363753  0.10515833    -0.60200
H593        H  0.46680101  0.54451236  0.14511856     0.16800
O594        O  0.46573525  0.45885140  0.10102560    -0.60300
H595        H  0.43428783  0.47666494  0.09031693     0.43800
H596        H  0.62647609  0.62391396  0.07818212     0.43700
C597        C  0.40734322  0.83257433  0.99255488    -0.05300
C598        C  0.44294403  0.86248124  0.01665135    -0.32800
C599        C  0.46742561  0.84120384  0.05253946     0.36500
C600        C  0.45614186  0.78933827  0.06491097    -0.05700
C601        C  0.42059265  0.75976058  0.04079185    -0.32700
C602        C  0.39625310  0.78079313  0.00520075     0.36400
H603        H  0.45201704  0.90235068  0.00759884     0.16800
O604        O  0.50239752  0.87132351  0.07497023    -0.60200
H605        H  0.41123495  0.71986662  0.04961791     0.16800
O606        O  0.36194557  0.74984019  0.98282552    -0.60300
H607        H  0.32762012  0.75702859  0.99521122     0.43800
H608        H  0.48151392  0.88999156  0.09650443     0.43700
C609        C  0.92508157  0.51025378  0.32529809    -0.05300
C610        C  0.97648185  0.49958804  0.31419939    -0.32800
C611        C  0.00405236  0.53142374  0.28532501     0.36500
C612        C  0.98029663  0.57467274  0.26658465    -0.05700
C613        C  0.93070272  0.58810977  0.28042710    -0.32700
C614        C  0.90295844  0.55612024  0.30946200     0.36400
H615        H  0.99483500  0.46526203  0.32663776     0.16800
O616        O  0.05394770  0.51922711  0.27492869    -0.60200
H617        H  0.91244453  0.62206591  0.26723695     0.16800
O618        O  0.85446075  0.57013208  0.32232329    -0.60300
H619        H  0.83164327  0.56321040  0.29738242     0.43800
H620        H  0.07612809  0.54217209  0.29304526     0.43700
C621        C  0.18911598  0.62785986  0.23078269    -0.05300
C622        C  0.22099754  0.58693010  0.21867507    -0.32800
C623        C  0.25119495  0.56155424  0.24908569     0.36500
C624        C  0.24996207  0.57747390  0.29221016    -0.05700
C625        C  0.22412810  0.62316544  0.30277208    -0.32700
C626        C  0.19357633  0.64819942  0.27255713     0.36400
H627        H  0.21915238  0.57148945  0.18646333     0.16800
O628        O  0.27875732  0.51909942  0.23688128    -0.60200
H629        H  0.22367829  0.63697000  0.33551407     0.16800
O630        O  0.16523628  0.68996185  0.28523751    -0.60300
H631        H  0.13404835  0.67479172  0.29960764     0.43800
H632        H  0.25267286  0.49048510  0.23324285     0.43700
C633        C  0.05752515  0.88624626  0.05692794    -0.05300
C634        C  0.01648476  0.84871317  0.05499727    -0.32800
C635        C  0.01592571  0.80381536  0.08034687     0.36500
C636        C  0.05803021  0.79304361  0.10679766    -0.05700
C637        C  0.10069686  0.82746665  0.10720243    -0.32700
C638        C  0.10059824  0.87381021  0.08318725     0.36400
H639        H  0.98477860  0.85234212  0.03294950     0.16800
O640        O  0.97458087  0.76949356  0.07768920    -0.60200
H641        H  0.13423699  0.81854654  0.12638336     0.16800
O642        O  0.14373560  0.90593373  0.08430640    -0.60300
H643        H  0.14536516  0.92003039  0.11390672     0.42200
H644        H  0.98630105  0.74101734  0.05880283     0.43700
C645        C  0.95700598  0.62015254  0.74382093    -0.05300
C646        C  0.96293826  0.63278009  0.78724454    -0.32800
C647        C  0.93118490  0.60992024  0.81838020     0.36500
C648        C  0.89158414  0.57443155  0.80655699    -0.05700
C649        C  0.88210553  0.56525934  0.76291924    -0.32700
C650        C  0.91501193  0.58744045  0.73149910     0.36400
H651        H  0.99467597  0.65789419  0.79767493     0.16800
O652        O  0.94165774  0.61975522  0.86067208    -0.60200
H653        H  0.85174671  0.53796858  0.75336009     0.16800
O654        O  0.90667017  0.57575506  0.68923398    -0.60300
H655        H  0.92495531  0.54283074  0.68426766     0.43800
H656        H  0.91848309  0.64843248  0.86874122     0.43700
C657        C  0.86313032  0.34668974  0.82602094    -0.05300
C658        C  0.89823651  0.30953384  0.84008226    -0.32800
C659        C  0.92042844  0.27515532  0.81107973     0.36500
C660        C  0.90808187  0.27835401  0.76735551    -0.05700
C661        C  0.87037138  0.31297161  0.75378959    -0.32700
C662        C  0.84750950  0.34671422  0.78276694     0.36400
H663        H  0.91074130  0.30899585  0.87315628     0.16800
O664        O  0.95834524  0.24279143  0.82496423    -0.60200
H665        H  0.86060446  0.31578734  0.72015340     0.16800
O666        O  0.81239124  0.38160568  0.76783901    -0.60300
H667        H  0.83342119  0.41168494  0.75711878     0.43800
H668        H  0.93957360  0.21225180  0.83745437     0.43700
C669        C  0.69102030  0.45461614  0.95942404    -0.05300
C670        C  0.65528256  0.49469078  0.95929987    -0.32800
C671        C  0.60974255  0.49105557  0.98379958     0.36500
C672        C  0.59921758  0.44684372  0.01019505    -0.05700
C673        C  0.63306267  0.40460470  0.00603131    -0.32700
C674        C  0.67883910  0.40873629  0.98224406     0.36400
H675        H  0.66299769  0.52965715  0.94073152     0.16800
O676        O  0.57570901  0.53115710  0.98178767    -0.60200
H677        H  0.62459475  0.36739545  0.02084062     0.16800
O678        O  0.71074804  0.36686359  0.98075911    -0.60300
H679        H  0.73120443  0.36870673  0.00747414     0.43800
H680        H  0.59436200  0.56204047  0.99311155     0.43700
C681        C  0.91743048  0.53142445  0.00034321    -0.05300
C682        C  0.96334255  0.50792454  0.01371564    -0.32800
C683        C  0.99352682  0.53004255  0.04658340     0.36500
C684        C  0.97758058  0.57604270  0.06664233    -0.05700
C685        C  0.93152384  0.59885553  0.05350709    -0.32700
C686        C  0.90187033  0.57739920  0.02062031     0.36400
H687        H  0.97594810  0.47248296  0.99864774     0.16800
O688        O  0.03715601  0.50534662  0.05987046    -0.60200
H689        H  0.91840218  0.63413881  0.06853573     0.16800
O690        O  0.85726568  0.60161862  0.00901657    -0.60300
H691        H  0.86866590  0.63134087  0.99078232     0.43800
H692        H  0.06565236  0.52030955  0.04213647     0.43700
loop_ 
_geom_bond_atom_site_label_1 
_geom_bond_atom_site_label_2 
_geom_bond_distance 
_geom_bond_site_symmetry_2 
_ccdc_geom_bond_type 
In1           O3   2.203       .  S
In1           O4   2.248       .  S
In1          O12   2.225       .  S
In1           O6   2.251       .  S
In1           O8   2.281       .  S
In1           O9   2.238       .  S
In1          O10   2.208       .  S
In1          O13   2.208       .  S
C2            O8   1.263       .  A
C2           O10   1.255       .  A
C2          C648   1.473       .  S
O3           C11   1.264       .  A
O4           C11   1.266       .  A
C5           O12   1.260       .  A
C5            O6   1.264       .  A
C5          C669   1.481       .  S
C7            O9   1.263       .  A
C7           O13   1.258       .  A
C7          C657   1.472       .  S
C11         C681   1.478   1_556  S
In14         O16   2.203   1_455  S
In14         O17   2.260       .  S
In14         O25   2.243       .  S
In14         O19   2.246       .  S
In14         O21   2.271       .  S
In14         O22   2.233       .  S
In14         O23   2.222       .  S
In14         O26   2.211       .  S
C15          O21   1.267       .  A
C15          O23   1.260       .  A
C15         C612   1.480   1_455  S
O16          C24   1.260   1_655  A
O17          C24   1.266       .  A
C18          O25   1.262       .  A
C18          O19   1.265       .  A
C18         C636   1.474       .  S
C20          O22   1.267       .  A
C20          O26   1.263       .  A
C20         C621   1.478       .  S
C24         C684   1.475   1_455  S
In27         O29   2.223       .  S
In27         O30   2.258       .  S
In27         O38   2.232       .  S
In27         O32   2.253       .  S
In27         O34   2.263       .  S
In27         O35   2.221       .  S
In27         O36   2.236       .  S
In27         O39   2.251       .  S
C28          O34   1.260       .  A
C28          O36   1.256       .  A
C28         C561   1.472       .  S
O29          C37   1.259       .  A
O30          C37   1.262       .  A
C31          O38   1.261       .  A
C31          O32   1.263       .  A
C31         C588   1.482       .  S
C33          O35   1.263       .  A
C33          O39   1.264       .  A
C33         C600   1.480       .  S
C37         C573   1.480       .  S
In40         O42   2.234       .  S
In40         O43   2.272       .  S
In40         O51   2.265       .  S
In40         O45   2.239       .  S
In40         O47   2.214       .  S
In40         O48   2.234       .  S
In40         O49   2.264       .  S
In40         O52   2.271       .  S
C41          O47   1.260       .  A
C41          O49   1.264       .  A
C41         C597   1.482       .  S
O42          C50   1.259       .  A
O43          C50   1.263       .  A
C44          O51   1.262       .  A
C44          O45   1.261       .  A
C44         C537   1.485   1_565  S
C46          O48   1.258       .  A
C46          O52   1.263       .  A
C46         C525   1.478       .  S
C50         C549   1.489       .  S
In53         O55   2.240       .  S
In53         O56   2.242       .  S
In53         O64   2.236       .  S
In53         O58   2.253       .  S
In53         O60   2.257       .  S
In53         O61   2.249       .  S
In53         O62   2.250       .  S
In53         O65   2.230       .  S
C54          O60   1.259       .  A
C54          O62   1.258       .  A
C54         C480   1.477       .  S
O55          C63   1.262       .  A
O56          C63   1.262       .  A
C57          O64   1.260       .  A
C57          O58   1.263       .  A
C57         C501   1.482       .  S
C59          O61   1.263       .  A
C59          O65   1.262       .  A
C59         C513   1.480       .  S
C63         C489   1.481       .  S
In66         O68   2.252       .  S
In66         O69   2.265       .  S
In66         O77   2.251       .  S
In66         O71   2.242       .  S
In66         O73   2.263       .  S
In66         O74   2.280       .  S
In66         O75   2.220   1_565  S
In66         O78   2.246   1_565  S
C67          O73   1.266   1_545  A
C67          O75   1.263       .  A
C67         C516   1.484       .  S
O68          C76   1.257       .  A
O69          C76   1.261       .  A
C70          O77   1.262       .  A
C70          O71   1.262       .  A
C70         C453   1.485       .  S
C72          O74   1.259   1_545  A
C72          O78   1.257       .  A
C72         C444   1.485       .  S
C76         C468   1.479       .  S
In79         O81   2.230       .  S
In79         O82   2.253       .  S
In79         O90   2.235       .  S
In79         O84   2.272       .  S
In79         O86   2.224       .  S
In79         O87   2.256   1_455  S
In79         O88   2.269       .  S
In79         O91   2.216       .  S
C80          O86   1.258       .  A
C80          O88   1.266       .  A
C80         C393   1.477       .  S
O81          C89   1.261       .  A
O82          C89   1.264       .  A
C83          O90   1.261       .  A
C83          O84   1.264       .  A
C83         C420   1.486       .  S
C85          O87   1.265       .  A
C85          O91   1.262   1_655  A
C85         C405   1.482       .  S
C89         C429   1.481       .  S
In92         O94   2.224       .  S
In92         O95   2.243       .  S
In92        O103   2.224       .  S
In92         O97   2.263       .  S
In92         O99   2.263       .  S
In92        O100   2.261       .  S
In92        O101   2.217       .  S
In92        O104   2.237       .  S
C93          O99   1.265       .  A
C93         O101   1.256       .  A
C93         C360   1.466       .  S
O94         C102   1.263       .  A
O95         C102   1.266       .  A
C96         O103   1.260       .  A
C96          O97   1.264       .  A
C96         C381   1.484       .  S
C98         O100   1.263       .  A
C98         O104   1.261       .  A
C98         C369   1.484       .  S
C102        C432   1.477   1_556  S
C105        C417   1.571       .  S
C105        C465   1.567       .  S
C105        C552   1.568   1_554  S
C105        C633   1.571       .  S
C106        C384   1.561       .  S
C106        C504   1.566       .  S
C106        C585   1.559       .  S
C106        C672   1.568       .  S
In107       O109   2.236       .  S
In107       O110   2.243       .  S
In107       O118   2.239       .  S
In107       O112   2.252   1_455  S
In107       O114   2.260   1_455  S
In107       O115   2.261       .  S
In107       O116   2.221   1_455  S
In107       O119   2.212   1_455  S
C108        O114   1.263       .  A
C108        O116   1.256       .  A
C108        C660   1.467       .  S
O109        C117   1.260       .  A
O110        C117   1.265       .  A
C111        O118   1.261       .  A
C111        O112   1.263   1_455  A
C111        C333   1.479       .  S
C113        O115   1.268   1_655  A
C113        O119   1.263       .  A
C113        C345   1.482       .  S
C117        C357   1.481       .  S
In120       O122   2.265       .  S
In120       O123   2.246       .  S
In120       O131   2.247       .  S
In120       O125   2.258       .  S
In120       O127   2.260       .  S
In120       O128   2.255       .  S
In120       O129   2.238       .  S
In120       O132   2.222       .  S
C121        O127   1.260       .  A
C121        O129   1.258       .  A
C121        C408   1.480       .  S
O122        C130   1.263       .  A
O123        C130   1.261       .  A
C124        O131   1.259       .  A
C124        O125   1.261       .  A
C124        C324   1.486       .  S
C126        O128   1.264       .  A
C126        O132   1.261       .  A
C126        C348   1.482       .  S
C130        C609   1.486       .  S
In133       O135   2.229       .  S
In133       O136   2.263       .  S
In133       O144   2.235       .  S
In133       O138   2.288       .  S
In133       O140   2.227       .  S
In133       O141   2.252       .  S
In133       O142   2.277       .  S
In133       O145   2.230       .  S
C134        O140   1.258       .  A
C134        O142   1.266       .  A
C134        C456   1.477       .  S
O135        C143   1.261       .  A
O136        C143   1.265       .  A
C137        O144   1.259       .  A
C137        O138   1.265       .  A
C137        C297   1.489       .  S
C139        O141   1.265       .  A
C139        O145   1.263       .  A
C139        C528   1.483       .  S
C143        C309   1.485       .  S
In146       O148   2.220       .  S
In146       O149   2.261       .  S
In146       O157   2.232       .  S
In146       O151   2.257       .  S
In146       O153   2.270       .  S
In146       O154   2.249       .  S
In146       O155   2.242       .  S
In146       O158   2.239       .  S
C147        O153   1.258       .  A
C147        O155   1.253       .  A
C147        C576   1.476       .  S
O148        C156   1.261       .  A
O149        C156   1.266       .  A
C150        O157   1.260       .  A
C150        O151   1.264       .  A
C150        C285   1.475       .  S
C152        O154   1.265   1_545  A
C152        O158   1.261   1_545  A
C152        C477   1.485       .  S
C156        C312   1.480       .  S
In159       O161   2.215       .  S
In159       O162   2.271       .  S
In159       O170   2.240       .  S
In159       O164   2.242       .  S
In159       O166   2.279       .  S
In159       O167   2.265       .  S
In159       O168   2.219       .  S
In159       O171   2.228       .  S
C160        O166   1.264       .  A
C160        O168   1.258       .  A
C160        C372   1.476       .  S
O161        C169   1.260   1_455  A
O162        C169   1.266   1_455  A
C163        O170   1.261       .  A
C163        O164   1.263       .  A
C163        C261   1.474       .  S
C165        O167   1.267       .  A
C165        O171   1.261       .  A
C165        C276   1.487       .  S
C169        C645   1.482       .  S
In172       O174   2.271       .  S
In172       O175   2.243       .  S
In172       O183   2.244       .  S
In172       O177   2.262       .  S
In172       O179   2.245       .  S
In172       O180   2.266       .  S
In172       O181   2.267       .  S
In172       O184   2.230       .  S
C173        O179   1.255       .  A
C173        O181   1.258       .  A
C173        C624   1.480       .  S
O174        C182   1.262       .  A
O175        C182   1.260       .  A
C176        O183   1.258       .  A
C176        O177   1.259       .  A
C176        C249   1.479       .  S
C178        O180   1.266       .  A
C178        O184   1.263       .  A
C178        C273   1.488       .  S
C182        C396   1.488       .  S
In185       O187   2.228       .  S
In185       O188   2.249       .  S
In185       O196   2.239       .  S
In185       O190   2.248       .  S
In185       O192   2.277       .  S
In185       O193   2.246       .  S
In185       O194   2.211       .  S
In185       O197   2.232       .  S
C186        O192   1.268       .  A
C186        O194   1.260       .  A
C186        C540   1.478       .  S
O187        C195   1.261       .  A
O188        C195   1.265       .  A
C189        O196   1.261       .  A
C189        O190   1.265       .  A
C189        C225   1.469       .  S
C191        O193   1.266       .  A
C191        O197   1.264       .  A
C191        C441   1.485       .  S
C195        C237   1.481       .  S
In198       O200   2.217   1_565  S
In198       O201   2.258       .  S
In198       O209   2.223       .  S
In198       O203   2.266   1_565  S
In198       O205   2.267   1_565  S
In198       O206   2.231       .  S
In198       O207   2.211       .  S
In198       O210   2.228       .  S
C199        O205   1.267       .  A
C199        O207   1.258   1_545  A
C199        C492   1.473       .  S
O200        C208   1.258       .  A
O201        C208   1.263   1_565  A
C202        O209   1.260       .  A
C202        O203   1.263   1_565  A
C202        C216   1.476       .  S
C204        O206   1.267       .  A
C204        O210   1.266       .  A
C204        C564   1.481       .  S
C208        C240   1.470       .  S
C211        C213   1.559       .  S
C211        C264   1.563       .  S
C211        C288   1.565       .  S
C211        C336   1.566       .  S
C212        C228   1.568       .  S
C212        C252   1.561       .  S
C212        C300   1.571       .  S
C212        C321   1.567       .  S
C213        C214   1.416   1_565  A
C213        C218   1.424       .  A
C214        C215   1.406       .  A
C214        H219   1.080       .  S
C215        C216   1.406   1_545  A
C215        O220   1.371       .  S
C216        C217   1.395       .  A
C217        C218   1.396       .  A
C217        H221   1.084       .  S
C218        O222   1.371       .  S
O220        H224   0.993       .  S
O222        H223   0.995       .  S
C225        C226   1.391       .  A
C225        C230   1.401       .  A
C226        C227   1.398       .  A
C226        H231   1.085       .  S
C227        C228   1.433       .  A
C227        O232   1.372       .  S
C228        C229   1.419       .  A
C229        C230   1.405       .  A
C229        H233   1.083       .  S
C230        O234   1.371       .  S
O232        H236   0.994       .  S
O234        H235   0.992       .  S
C237        C238   1.407       .  A
C237        C242   1.412       .  A
C238        C239   1.402       .  A
C238        H243   1.083       .  S
C239        C240   1.406       .  A
C239        O244   1.372   1_545  S
C240        C241   1.400       .  A
C241        C242   1.396       .  A
C241        H245   1.084       .  S
C242        O246   1.372       .  S
O244        H248   0.994       .  S
O246        H247   0.992       .  S
C249        C250   1.399       .  A
C249        C254   1.405       .  A
C250        C251   1.399       .  A
C250        H255   1.084       .  S
C251        C252   1.423       .  A
C251        O256   1.372       .  S
C252        C253   1.417       .  A
C253        C254   1.403       .  A
C253        H257   1.079       .  S
C254        O258   1.371       .  S
O256        H260   0.992       .  S
O258        H259   0.993       .  S
C261        C262   1.396       .  A
C261        C266   1.402       .  A
C262        C263   1.402       .  A
C262        H267   1.084       .  S
C263        C264   1.430       .  A
C263        O268   1.373       .  S
C264        C265   1.415       .  A
C265        C266   1.400       .  A
C265        H269   1.083   1_455  S
C266        O270   1.371   1_455  S
O268        H272   0.994       .  S
O270        H271   0.993       .  S
C273        C274   1.405       .  A
C273        C278   1.412       .  A
C274        C275   1.399       .  A
C274        H279   1.083       .  S
C275        C276   1.412       .  A
C275        O280   1.372       .  S
C276        C277   1.406       .  A
C277        C278   1.406       .  A
C277        H281   1.083       .  S
C278        O282   1.371       .  S
O280        H284   0.994       .  S
O282        H283   0.994       .  S
C285        C286   1.398       .  A
C285        C290   1.404       .  A
C286        C287   1.400       .  A
C286        H291   1.084   1_565  S
C287        C288   1.424   1_655  A
C287        O292   1.372   1_665  S
C288        C289   1.417   1_455  A
C289        C290   1.401       .  A
C289        H293   1.080       .  S
C290        O294   1.372       .  S
O292        H296   0.993       .  S
O294        H295   0.992       .  S
C297        C298   1.399       .  A
C297        C302   1.408       .  A
C298        C299   1.399       .  A
C298        H303   1.084       .  S
C299        C300   1.423       .  A
C299        O304   1.372       .  S
C300        C301   1.419       .  A
C301        C302   1.411       .  A
C301        H305   1.079       .  S
C302        O306   1.371       .  S
O304        H308   0.992       .  S
O306        H307   0.993       .  S
C309        C310   1.407       .  A
C309        C314   1.411       .  A
C310        C311   1.405       .  A
C310        H315   1.083       .  S
C311        C312   1.410       .  A
C311        O316   1.372       .  S
C312        C313   1.403       .  A
C313        C314   1.397       .  A
C313        H317   1.084       .  S
C314        O318   1.372       .  S
O316        H320   0.992       .  S
O318        H319   0.991       .  S
C321        C322   1.418       .  A
C321        C326   1.422       .  A
C322        C323   1.399       .  A
C322        H327   1.080       .  S
C323        C324   1.407       .  A
C323        O328   1.372       .  S
C324        C325   1.401       .  A
C325        C326   1.403       .  A
C325        H329   1.083       .  S
C326        O330   1.370       .  S
O328        H332   0.993       .  S
O330        H331   0.992       .  S
C333        C334   1.399       .  A
C333        C338   1.404   1_455  A
C334        C335   1.405       .  A
C334        H339   1.084       .  S
C335        C336   1.421   1_545  A
C335        O340   1.371   1_545  S
C336        C337   1.419   1_465  A
C337        C338   1.401       .  A
C337        H341   1.081   1_545  S
C338        O342   1.371       .  S
O340        H344   0.997   1_565  S
O342        H343   0.992       .  S
C345        C346   1.404       .  A
C345        C350   1.411       .  A
C346        C347   1.395       .  A
C346        H351   1.084       .  S
C347        C348   1.409       .  A
C347        O352   1.372       .  S
C348        C349   1.407       .  A
C349        C350   1.405       .  A
C349        H353   1.083       .  S
C350        O354   1.371   1_655  S
O352        H356   0.991       .  S
O354        H355   0.992       .  S
C357        C358   1.405       .  A
C357        C362   1.414       .  A
C358        C359   1.398       .  A
C358        H363   1.083       .  S
C359        C360   1.405       .  A
C359        O364   1.372       .  S
C360        C361   1.401       .  A
C361        C362   1.400       .  A
C361        H365   1.084       .  S
C362        O366   1.372       .  S
O364        H368   0.992       .  S
O366        H367   0.995       .  S
C369        C370   1.404       .  A
C369        C374   1.413       .  A
C370        C371   1.397       .  A
C370        H375   1.084       .  S
C371        C372   1.406       .  A
C371        O376   1.373       .  S
C372        C373   1.404       .  A
C373        C374   1.408       .  A
C373        H377   1.084       .  S
C374        O378   1.372       .  S
O376        H380   0.992       .  S
O378        H379   0.993       .  S
C381        C382   1.399       .  A
C381        C386   1.406       .  A
C382        C383   1.401   1_556  A
C382        H387   1.084       .  S
C383        C384   1.426       .  A
C383        O388   1.373       .  S
C384        C385   1.417   1_554  A
C385        C386   1.403       .  A
C385        H389   1.083       .  S
C386        O390   1.371       .  S
O388        H392   0.996       .  S
O390        H391   0.994       .  S
C393        C394   1.402       .  A
C393        C398   1.407       .  A
C394        C395   1.398       .  A
C394        H399   1.084       .  S
C395        C396   1.412       .  A
C395        O400   1.371       .  S
C396        C397   1.409       .  A
C397        C398   1.405       .  A
C397        H401   1.083       .  S
C398        O402   1.371       .  S
O400        H404   0.995       .  S
O402        H403   0.996       .  S
C405        C406   1.406       .  A
C405        C410   1.412       .  A
C406        C407   1.403       .  A
C406        H411   1.083       .  S
C407        C408   1.410       .  A
C407        O412   1.371       .  S
C408        C409   1.403       .  A
C409        C410   1.396       .  A
C409        H413   1.084       .  S
C410        O414   1.371       .  S
O412        H416   0.994       .  S
O414        H415   0.994       .  S
C417        C418   1.420       .  A
C417        C422   1.425   1_565  A
C418        C419   1.408   1_565  A
C418        H423   1.079       .  S
C419        C420   1.406       .  A
C419        O424   1.372       .  S
C420        C421   1.398       .  A
C421        C422   1.399       .  A
C421        H425   1.084       .  S
C422        O426   1.373   1_554  S
O424        H428   0.993       .  S
O426        H427   0.992       .  S
C429        C430   1.405       .  A
C429        C434   1.411       .  A
C430        C431   1.397       .  A
C430        H435   1.083       .  S
C431        C432   1.408       .  A
C431        O436   1.372       .  S
C432        C433   1.404       .  A
C433        C434   1.402       .  A
C433        H437   1.084   1_554  S
C434        O438   1.371       .  S
O436        H440   0.992       .  S
O438        H439   0.994       .  S
C441        C442   1.406       .  A
C441        C446   1.410       .  A
C442        C443   1.405       .  A
C442        H447   1.083       .  S
C443        C444   1.411       .  A
C443        O448   1.372       .  S
C444        C445   1.404       .  A
C445        C446   1.399       .  A
C445        H449   1.084       .  S
C446        O450   1.371       .  S
O448        H452   0.992   1_545  S
O450        H451   0.992       .  S
C453        C454   1.409       .  A
C453        C458   1.411       .  A
C454        C455   1.404       .  A
C454        H459   1.083       .  S
C455        C456   1.407       .  A
C455        O460   1.372       .  S
C456        C457   1.403       .  A
C457        C458   1.400       .  A
C457        H461   1.084       .  S
C458        O462   1.372       .  S
O460        H464   0.993       .  S
O462        H463   0.994       .  S
C465        C466   1.419   1_554  A
C465        C470   1.423   1_455  A
C466        C467   1.400   1_455  A
C466        H471   1.079       .  S
C467        C468   1.402       .  A
C467        O472   1.371       .  S
C468        C469   1.401       .  A
C469        C470   1.402   1_556  A
C469        H473   1.084   1_556  S
C470        O474   1.372       .  S
O472        H476   0.992       .  S
O474        H475   0.998       .  S
C477        C478   1.404       .  A
C477        C482   1.414       .  A
C478        C479   1.400       .  A
C478        H483   1.083       .  S
C479        C480   1.409       .  A
C479        O484   1.372       .  S
C480        C481   1.403       .  A
C481        C482   1.402       .  A
C481        H485   1.084       .  S
C482        O486   1.371       .  S
O484        H488   0.993       .  S
O486        H487   0.998       .  S
C489        C490   1.407       .  A
C489        C494   1.411       .  A
C490        C491   1.402       .  A
C490        H495   1.083       .  S
C491        C492   1.405       .  A
C491        O496   1.371       .  S
C492        C493   1.403       .  A
C493        C494   1.398       .  A
C493        H497   1.084   1_545  S
C494        O498   1.372   1_545  S
O496        H500   0.993       .  S
O498        H499   0.994       .  S
C501        C502   1.402       .  A
C501        C506   1.405       .  A
C502        C503   1.403       .  A
C502        H507   1.084       .  S
C503        C504   1.425       .  A
C503        O508   1.371       .  S
C504        C505   1.417       .  A
C505        C506   1.398       .  A
C505        H509   1.083       .  S
C506        O510   1.372       .  S
O508        H512   0.992       .  S
O510        H511   0.993       .  S
C513        C514   1.406       .  A
C513        C518   1.408       .  A
C514        C515   1.405       .  A
C514        H519   1.084       .  S
C515        C516   1.412   1_554  A
C515        O520   1.372   1_544  S
C516        C517   1.405   1_556  A
C517        C518   1.396       .  A
C517        H521   1.083   1_554  S
C518        O522   1.372       .  S
O520        H524   0.991       .  S
O522        H523   0.992       .  S
C525        C526   1.403       .  A
C525        C530   1.409       .  A
C526        C527   1.400       .  A
C526        H531   1.084       .  S
C527        C528   1.411       .  A
C527        O532   1.371       .  S
C528        C529   1.406       .  A
C529        C530   1.403       .  A
C529        H533   1.083       .  S
C530        O534   1.372       .  S
O532        H536   0.994       .  S
O534        H535   0.993       .  S
C537        C538   1.403       .  A
C537        C542   1.414       .  A
C538        C539   1.397       .  A
C538        H543   1.084   1_545  S
C539        C540   1.408       .  A
C539        O544   1.373       .  S
C540        C541   1.404       .  A
C541        C542   1.408       .  A
C541        H545   1.083       .  S
C542        O546   1.371       .  S
O544        H548   0.990   1_545  S
O546        H547   0.990       .  S
C549        C550   1.402       .  A
C549        C554   1.409       .  A
C550        C551   1.406       .  A
C550        H555   1.083       .  S
C551        C552   1.425       .  A
C551        O556   1.373       .  S
C552        C553   1.414   1_556  A
C553        C554   1.400   1_554  A
C553        H557   1.079       .  S
C554        O558   1.371       .  S
O556        H560   0.996       .  S
O558        H559   0.996   1_565  S
C561        C562   1.402       .  A
C561        C566   1.406       .  A
C562        C563   1.399       .  A
C562        H567   1.084       .  S
C563        C564   1.411       .  A
C563        O568   1.372       .  S
C564        C565   1.406       .  A
C565        C566   1.400       .  A
C565        H569   1.083       .  S
C566        O570   1.371       .  S
O568        H572   0.992       .  S
O570        H571   0.993       .  S
C573        C574   1.404       .  A
C573        C578   1.411       .  A
C574        C575   1.395       .  A
C574        H579   1.084       .  S
C575        C576   1.408       .  A
C575        O580   1.371       .  S
C576        C577   1.405       .  A
C577        C578   1.403       .  A
C577        H581   1.084       .  S
C578        O582   1.372       .  S
O580        H584   0.994       .  S
O582        H583   0.995       .  S
C585        C586   1.413       .  A
C585        C590   1.423       .  A
C586        C587   1.397       .  A
C586        H591   1.080       .  S
C587        C588   1.406       .  A
C587        O592   1.372       .  S
C588        C589   1.401       .  A
C589        C590   1.404       .  A
C589        H593   1.084       .  S
C590        O594   1.372       .  S
O592        H596   0.991       .  S
O594        H595   1.000       .  S
C597        C598   1.407   1_556  A
C597        C602   1.411   1_556  A
C598        C599   1.405       .  A
C598        H603   1.083       .  S
C599        C600   1.412       .  A
C599        O604   1.372       .  S
C600        C601   1.402       .  A
C601        C602   1.393       .  A
C601        H605   1.084       .  S
C602        O606   1.372   1_554  S
O604        H608   0.993       .  S
O606        H607   0.988       .  S
C609        C610   1.405       .  A
C609        C614   1.412       .  A
C610        C611   1.399   1_655  A
C610        H615   1.084       .  S
C611        C612   1.410   1_455  A
C611        O616   1.373       .  S
C612        C613   1.403       .  A
C613        C614   1.407       .  A
C613        H617   1.083       .  S
C614        O618   1.372       .  S
O616        H620   0.992       .  S
O618        H619   0.992       .  S
C621        C622   1.404       .  A
C621        C626   1.411       .  A
C622        C623   1.401       .  A
C622        H627   1.083       .  S
C623        C624   1.410       .  A
C623        O628   1.372       .  S
C624        C625   1.405       .  A
C625        C626   1.398       .  A
C625        H629   1.084       .  S
C626        O630   1.373       .  S
O628        H632   0.993       .  S
O630        H631   0.993       .  S
C633        C634   1.419       .  A
C633        C638   1.426       .  A
C634        C635   1.399       .  A
C634        H639   1.077   1_455  S
C635        C636   1.400       .  A
C635        O640   1.373   1_455  S
C636        C637   1.398       .  A
C637        C638   1.407       .  A
C637        H641   1.084       .  S
C638        O642   1.373       .  S
O640        H644   0.994       .  S
O642        H643   0.995       .  S
C645        C646   1.404       .  A
C645        C650   1.413       .  A
C646        C647   1.391       .  A
C646        H651   1.084       .  S
C647        C648   1.406       .  A
C647        O652   1.372       .  S
C648        C649   1.405       .  A
C649        C650   1.408       .  A
C649        H653   1.084       .  S
C650        O654   1.371       .  S
O652        H656   0.993       .  S
O654        H655   0.992       .  S
C657        C658   1.404       .  A
C657        C662   1.411       .  A
C658        C659   1.399       .  A
C658        H663   1.084       .  S
C659        C660   1.406       .  A
C659        O664   1.371       .  S
C660        C661   1.401       .  A
C661        C662   1.395       .  A
C661        H665   1.084       .  S
C662        O666   1.373       .  S
O664        H668   0.992       .  S
O666        H667   0.992       .  S
C669        C670   1.400       .  A
C669        C674   1.406       .  A
C670        C671   1.403       .  A
C670        H675   1.083       .  S
C671        C672   1.424   1_556  A
C671        O676   1.372       .  S
C672        C673   1.417       .  A
C673        C674   1.397   1_554  A
C673        H677   1.080       .  S
C674        O678   1.372       .  S
O676        H680   0.986       .  S
O678        H679   0.990   1_556  S
C681        C682   1.408       .  A
C681        C686   1.409       .  A
C682        C683   1.405       .  A
C682        H687   1.083   1_554  S
C683        C684   1.410       .  A
C683        O688   1.372   1_655  S
C684        C685   1.401       .  A
C685        C686   1.391       .  A
C685        H689   1.084       .  S
C686        O690   1.372       .  S
O688        H692   0.991       .  S
O690        H691   0.991   1_554  S
