geometry optimzed in LAMMPS
_audit_creation_date              2020-12-01 
_audit_creation_method            'lammps2cif' 
_symmetry_space_group_name_H-M    'P1' 
_symmetry_Int_Tables_number       1 
_symmetry_cell_setting            triclinic 
loop_ 
_symmetry_equiv_pos_as_xyz 
  x,y,z 
_cell_length_a                    53.12482169 
_cell_length_b                    53.04488248286706 
_cell_length_c                    29.36428093064943 
_cell_angle_alpha                 90.2849866932392 
_cell_angle_beta                  90.08193968189622 
_cell_angle_gamma                 90.13461416920062 
loop_ 
_atom_site_label 
_atom_site_type_symbol 
_atom_site_fract_x 
_atom_site_fract_y 
_atom_site_fract_z 
_atom_site_charge 
O1          O  0.12061763  0.36770445  0.90327809    -0.82200
C2          C  0.13520611  0.33453738  0.72750207     0.97200
O3          O  0.14394773  0.35078850  0.75463294    -0.71300
O4          O  0.14643072  0.38337136  0.82147077    -0.74900
Al5        Al  0.14665607  0.34715482  0.81775216     1.49000
C6          C  0.12881980  0.39901951  0.81722102     0.92400
O7          O  0.06698526  0.36337207  0.81700321    -0.81100
O8          O  0.07448097  0.30875083  0.84265146    -0.74700
Al9        Al  0.09546657  0.36364862  0.85641139     1.90100
O10         O  0.07537741  0.33568074  0.76346746    -0.73800
O11         O  0.12087431  0.29194074  0.82493961    -0.73600
O12         O  0.12029905  0.31747667  0.74146000    -0.79300
O13         O  0.15593877  0.31241919  0.81226487    -0.77500
O14         O  0.11353121  0.34211352  0.82340205    -1.13600
O15         O  0.15225870  0.34399068  0.88068468    -0.72800
C16         C  0.14116266  0.35642468  0.91124716     0.97900
C17         C  0.06144442  0.35267535  0.77986574     0.94300
Al18       Al  0.09913329  0.31565300  0.79561303     1.55600
O19         O  0.10642845  0.39235266  0.82356231    -0.77400
C20         C  0.14458182  0.29237194  0.82255782     0.98500
C21         C  0.06973997  0.31881015  0.88081574     0.93400
O22         O  0.08118993  0.33844939  0.89332117    -0.82700
O23         O  0.32184740  0.09038971  0.80763576    -0.82200
C24         C  0.34646763  0.16468795  0.93904175     0.97200
O25         O  0.35810524  0.14421235  0.93271151    -0.71300
O26         O  0.32804070  0.10518797  0.93560653    -0.74900
Al27       Al  0.35201813  0.11630732  0.89257405     1.49000
C28         C  0.30738913  0.09417372  0.92892796     0.92400
O29         O  0.27900042  0.13920134  0.86403596    -0.81100
O30         O  0.33480923  0.15868749  0.78382249    -0.74700
Al31       Al  0.30230762  0.11597013  0.83704144     1.90100
O32         O  0.29841173  0.17353340  0.84367730    -0.73800
O33         O  0.36944560  0.16498092  0.84703154    -0.73600
O34         O  0.33217502  0.17371820  0.90906093    -0.79300
O35         O  0.37924645  0.12527176  0.85367480    -0.77500
O36         O  0.32919598  0.13219896  0.85880779    -1.13600
O37         O  0.35063786  0.08509160  0.86027547    -0.72800
C38         C  0.33954200  0.07771409  0.82468654     0.97900
C39         C  0.27879017  0.16268382  0.85763198     0.94300
Al40       Al  0.33332944  0.16485079  0.84686551     1.55600
O41         O  0.29717192  0.09541159  0.89003715    -0.77400
C42         C  0.38552204  0.14759997  0.84457271     0.98500
C43         C  0.31816037  0.14770558  0.76028754     0.93400
O44         O  0.30212889  0.13331189  0.77893134    -0.82700
O45         O  0.12488940  0.67552237  0.10498503    -0.82200
C46         C  0.13934761  0.71100384  0.28128940     0.97200
O47         O  0.14933001  0.69547998  0.25426056    -0.71300
O48         O  0.14907710  0.66118702  0.18938691    -0.74900
Al49       Al  0.15081550  0.69746844  0.19011655     1.49000
C50         C  0.13104459  0.64562159  0.19113907     0.92400
O51         O  0.06966752  0.68303358  0.18690051    -0.81100
O52         O  0.07907105  0.73572113  0.16635267    -0.74700
Al53       Al  0.09945124  0.68180247  0.14998857     1.90100
O54         O  0.08000255  0.70716922  0.24442929    -0.73800
O55         O  0.12434048  0.75300572  0.18630713    -0.73600
O56         O  0.12350464  0.72688859  0.26732902    -0.79300
O57         O  0.15987715  0.73224041  0.19195612    -0.77500
O58         O  0.11780002  0.70257330  0.18465344    -1.13600
O59         O  0.15645678  0.69909731  0.12645152    -0.72800
C60         C  0.14574237  0.68588246  0.09644389     0.97900
C61         C  0.06529886  0.69134182  0.22647384     0.94300
Al62       Al  0.10306056  0.72844143  0.21350895     1.55600
O63         O  0.10882212  0.65267939  0.18331345    -0.77400
C64         C  0.14804440  0.75247530  0.18531671     0.98500
C65         C  0.07679566  0.72794752  0.12585356     0.93400
O66         O  0.08807467  0.70839740  0.11250894    -0.82700
O67         O  0.32617010  0.95774873  0.22317188    -0.82200
C68         C  0.35576013  0.87965595  0.11217583     0.97200
O69         O  0.35418577  0.90334201  0.11044528    -0.71300
O70         O  0.33516018  0.94745309  0.13117142    -0.74900
Al71       Al  0.35899780  0.92598857  0.15943458     1.49000
C72         C  0.31150161  0.94801522  0.12835836     0.92400
O73         O  0.28713007  0.89767515  0.21191738    -0.81100
O74         O  0.33057525  0.88007009  0.26905556    -0.74700
Al75       Al  0.30968489  0.92591755  0.21501836     1.90100
O76         O  0.31030754  0.86692452  0.18556404    -0.73800
O77         O  0.37460563  0.88323491  0.23162159    -0.73600
O78         O  0.35484970  0.86807313  0.14950985    -0.79300
O79         O  0.38863833  0.90851350  0.17928252    -0.77500
O80         O  0.33688548  0.90971446  0.19415579    -1.13600
O81         O  0.36568231  0.95065257  0.20504964    -0.72800
C82         C  0.34896603  0.96457224  0.22248813     0.97900
C83         C  0.28907499  0.87575047  0.19550800     0.94300
Al84       Al  0.34204873  0.87740722  0.20775682     1.55600
O85         O  0.29830838  0.93507754  0.15534413    -0.77400
C86         C  0.39274749  0.89391651  0.21213962     0.98500
C87         C  0.32481575  0.89873078  0.29365348     0.93400
O88         O  0.31798725  0.91930172  0.27647387    -0.82700
O89         O  0.69756754  0.08294066  0.25736283    -0.82200
C90         C  0.67315087  0.15866052  0.12814955     0.97200
O91         O  0.66273815  0.13726327  0.13221060    -0.71300
O92         O  0.69224169  0.09741815  0.13351017    -0.74900
Al93       Al  0.66726167  0.10956149  0.17353913     1.49000
C94         C  0.71338862  0.08767795  0.14143229     0.92400
O95         O  0.73942088  0.13557484  0.21148094    -0.81100
O96         O  0.68005898  0.15154070  0.28442534    -0.74700
Al97       Al  0.71602234  0.11062003  0.23280703     1.90100
O98         O  0.71764552  0.16883859  0.22901824    -0.73800
O99         O  0.64723060  0.15804276  0.21785614    -0.73600
O100        O  0.68598391  0.16827615  0.16004128    -0.79300
O101        O  0.63854425  0.11838243  0.20884364    -0.77500
O102        O  0.68899857  0.12606324  0.20917341    -1.13600
O103        O  0.66758963  0.07899007  0.20684090    -0.72800
C104        C  0.67968239  0.07044148  0.24023424     0.97900
C105        C  0.73829598  0.15904286  0.21795314     0.94300
Al106      Al  0.68336544  0.15866013  0.22190860     1.55600
O107        O  0.72393656  0.09152535  0.17931599    -0.77400
C108        C  0.63134504  0.14042112  0.21754384     0.98500
C109        C  0.69480235  0.13888809  0.30915360     0.93400
O110        O  0.71251436  0.12609009  0.29184340    -0.82700
O111        O  0.91351912  0.35560372  0.10700582    -0.82200
C112        C  0.89259563  0.32586763  0.28665077     0.97200
O113        O  0.87643993  0.33164027  0.25681543    -0.71300
O114        O  0.88458825  0.37631693  0.22392486    -0.74900
Al115      Al  0.87964527  0.34448606  0.19618309     1.49000
C116        C  0.89721268  0.39417140  0.20758086     0.92400
O117        O  0.95231722  0.36546561  0.21255443    -0.81100
O118        O  0.93823501  0.29849103  0.15889412    -0.74700
Al119      Al  0.93196396  0.35954264  0.16157798     1.90100
O120        O  0.95757561  0.32637071  0.23275658    -0.73800
O121        O  0.89590816  0.28928135  0.20757757    -0.73600
O122        O  0.91463085  0.31973150  0.27535764    -0.79300
O123        O  0.87027032  0.31318747  0.16920709    -0.77500
O124        O  0.91234707  0.33818706  0.19145454    -1.13600
O125        O  0.87605688  0.35929489  0.13660997    -0.72800
C126        C  0.89039178  0.35992951  0.10228117     0.97900
C127        C  0.96423529  0.34923098  0.23525407     0.94300
Al128      Al  0.92553754  0.31060497  0.21634268     1.55600
O129        O  0.91413069  0.38974374  0.17845177    -0.77400
C130        C  0.87540422  0.29199286  0.18595456     0.98500
C131        C  0.95282399  0.31112710  0.13368598     0.93400
O132        O  0.95442559  0.33474621  0.13797758    -0.82700
O133        O  0.90194142  0.66786467  0.91036984    -0.82200
C134        C  0.88408348  0.70690277  0.73979969     0.97200
O135        O  0.87422554  0.69095300  0.76591019    -0.71300
O136        O  0.87451430  0.65551404  0.82711026    -0.74900
Al137      Al  0.87349837  0.69157546  0.82968337     1.49000
C138        C  0.89218765  0.64010367  0.82110569     0.92400
O139        O  0.95350001  0.67617097  0.82191268    -0.81100
O140        O  0.94474885  0.73053835  0.85515370    -0.74700
Al141      Al  0.92581302  0.67438186  0.86262233     1.90100
O142        O  0.94437693  0.70615538  0.77375398    -0.73800
O143        O  0.89868618  0.74722725  0.83934877    -0.73600
O144        O  0.89944579  0.72330805  0.75452758    -0.79300
O145        O  0.86366303  0.72608392  0.83098877    -0.77500
O146        O  0.90674154  0.69682870  0.83346591    -1.13600
O147        O  0.86955009  0.69164002  0.89350088    -0.72800
C148        C  0.88139635  0.67818354  0.92146724     0.97900
C149        C  0.95835536  0.68840371  0.78638226     0.94300
Al150      Al  0.92042667  0.72439711  0.80810684     1.55600
O151        O  0.91462549  0.64671993  0.82722147    -0.77400
C152        C  0.87501168  0.74632696  0.84012859     0.98500
C153        C  0.95037379  0.71929638  0.89149386     0.93400
O154        O  0.94022569  0.69863307  0.90161211    -0.82700
O155        O  0.69621615  0.95100823  0.81665590    -0.82200
C156        C  0.67080305  0.87328283  0.94184002     0.97200
O157        O  0.66074107  0.89477112  0.93814584    -0.71300
O158        O  0.69077591  0.93461624  0.93874936    -0.74900
Al159      Al  0.66571155  0.92268360  0.89791447     1.49000
C160        C  0.71243284  0.94359023  0.93142757     0.92400
O161        O  0.73840585  0.89787002  0.85677358    -0.81100
O162        O  0.67978144  0.88088149  0.78654397    -0.74700
Al163      Al  0.71458797  0.92276936  0.83878623     1.90100
O164        O  0.71625332  0.86426592  0.84354853    -0.73800
O165        O  0.64616743  0.87454970  0.85123765    -0.73600
O166        O  0.68416130  0.86417625  0.91044933    -0.79300
O167        O  0.63728295  0.91402165  0.86132624    -0.77500
O168        O  0.68768710  0.90667920  0.86209601    -1.13600
O169        O  0.66587968  0.95336253  0.86613724    -0.72800
C170        C  0.67804829  0.96283052  0.83391440     0.97900
C171        C  0.73718514  0.87440793  0.85103365     0.94300
Al172      Al  0.68222558  0.87405368  0.84900009     1.55600
O173        O  0.72289415  0.94020085  0.89344746    -0.77400
C174        C  0.63032458  0.89210665  0.85075835     0.98500
C175        C  0.69426533  0.89399321  0.76216419     0.93400
O176        O  0.71066948  0.90846643  0.77941457    -0.82700
O177        O  0.39178654  0.16548056  0.42908247    -0.82200
C178        C  0.38359854  0.20563854  0.26018201     0.97200
O179        O  0.37260570  0.18967694  0.28494569    -0.71300
O180        O  0.36786252  0.15539622  0.34874120    -0.74900
Al181      Al  0.36889202  0.19178973  0.34828515     1.49000
C182        C  0.38507361  0.13981774  0.33977542     0.92400
O183        O  0.44855342  0.17340264  0.35036500    -0.81100
O184        O  0.44172018  0.22583787  0.38229463    -0.74700
Al185      Al  0.41837481  0.17207666  0.38583486     1.90100
O186        O  0.44102027  0.20143296  0.29848434    -0.73800
O187        O  0.39579608  0.24661668  0.36125262    -0.73600
O188        O  0.39808821  0.22231585  0.27690359    -0.79300
O189        O  0.36119531  0.22667843  0.34439985    -0.77500
O190        O  0.40183583  0.19553721  0.35567590    -1.13600
O191        O  0.36296636  0.19352598  0.41231516    -0.72800
C192        C  0.37239904  0.17798033  0.44009180     0.97900
C193        C  0.45424326  0.18347221  0.31300186     0.94300
Al194      Al  0.41781148  0.22199467  0.33205068     1.55600
O195        O  0.40768397  0.14612550  0.34560972    -0.77400
C196        C  0.37216305  0.24696353  0.35468666     0.98500
C197        C  0.44465714  0.21420355  0.41965737     0.93400
O198        O  0.43129205  0.19524633  0.42856579    -0.82700
O199        O  0.19840183  0.45575918  0.26295790    -0.82200
C200        C  0.18086770  0.39158991  0.41435750     0.97200
O201        O  0.16997326  0.41211470  0.40526177    -0.71300
O202        O  0.20221745  0.44927836  0.39410837    -0.74900
Al203      Al  0.17495772  0.43709764  0.35904121     1.49000
C204        C  0.22165968  0.46009341  0.37926760     0.92400
O205        O  0.24496116  0.40978684  0.31713790    -0.81100
O206        O  0.18338953  0.38602084  0.25754525    -0.74700
Al207      Al  0.21981502  0.43194967  0.29231770     1.90100
O208        O  0.22318990  0.37477923  0.31281090    -0.73800
O209        O  0.15299672  0.38670662  0.32758996    -0.73600
O210        O  0.19391760  0.38069998  0.38433897    -0.79300
O211        O  0.14527483  0.42723905  0.32786754    -0.77500
O212        O  0.19470173  0.41809506  0.32397095    -1.13600
O213        O  0.17514229  0.46632685  0.32104582    -0.72800
C214        C  0.18265604  0.47042332  0.28104858     0.97900
C215        C  0.24395878  0.38598448  0.31744233     0.94300
Al216      Al  0.18895334  0.38496439  0.32077082     1.55600
O217        O  0.22921617  0.45628067  0.33890833    -0.77400
C218        C  0.13779877  0.40482562  0.32398341     0.98500
C219        C  0.19756722  0.39564416  0.22796494     0.93400
O220        O  0.21487416  0.41099619  0.23901384    -0.82700
O221        O  0.82844534  0.44956474  0.74679081    -0.82200
C222        C  0.84111489  0.38364224  0.59528361     0.97200
O223        O  0.85180467  0.40462928  0.60206988    -0.71300
O224        O  0.81981102  0.44197555  0.61486546    -0.74900
Al225      Al  0.84811243  0.43028028  0.64788872     1.49000
C226        C  0.80171569  0.45415232  0.63188295     0.92400
O227        O  0.77914907  0.40565065  0.69504170    -0.81100
O228        O  0.84107125  0.38174245  0.75265462    -0.74700
Al229      Al  0.80521850  0.42680307  0.71867242     1.90100
O230        O  0.80014779  0.37011683  0.69902708    -0.73800
O231        O  0.87031578  0.38034172  0.68210835    -0.73600
O232        O  0.82902154  0.37309970  0.62683947    -0.79300
O233        O  0.87861359  0.42073369  0.67722523    -0.77500
O234        O  0.82916483  0.41205717  0.68520396    -1.13600
O235        O  0.84876177  0.46002741  0.68504868    -0.72800
C236        C  0.84287749  0.46444994  0.72594867     0.97900
C237        C  0.77964354  0.38186620  0.69527610     0.94300
Al238      Al  0.83454187  0.37910814  0.68982843     1.55600
O239        O  0.79585570  0.45147671  0.67334530    -0.77400
C240        C  0.88571345  0.39842493  0.68415269     0.98500
C241        C  0.82736513  0.39137331  0.78295232     0.93400
O242        O  0.80952933  0.40575266  0.77160695    -0.82700
O243        O  0.62225415  0.17452657  0.63058934    -0.82200
C244        C  0.63300254  0.20846674  0.81104742     0.97200
O245        O  0.65104341  0.20371970  0.78447656    -0.71300
O246        O  0.64644957  0.15837541  0.75134106    -0.74900
Al247      Al  0.65134932  0.19015167  0.72397663     1.49000
C248        C  0.63487562  0.13985178  0.73448653     0.92400
O249        O  0.57749243  0.16719667  0.72982002    -0.81100
O250        O  0.59266605  0.23359502  0.67632227    -0.74700
Al251      Al  0.60102433  0.17227800  0.68191056     1.90100
O252        O  0.57123401  0.20696172  0.74578150    -0.73800
O253        O  0.63196354  0.24472505  0.73014287    -0.73600
O254        O  0.61150643  0.21402956  0.79604351    -0.79300
O255        O  0.66084754  0.22125351  0.69813972    -0.77500
O256        O  0.61860891  0.19501757  0.71342254    -1.13600
O257        O  0.65869935  0.17521449  0.66605445    -0.72800
C258        C  0.64584004  0.17221020  0.63032214     0.97900
C259        C  0.56395774  0.18431177  0.74677879     0.94300
Al260      Al  0.60329231  0.22255207  0.73524788     1.55600
O261        O  0.61852823  0.14311893  0.70387870    -0.77400
C262        C  0.65314993  0.24250948  0.71103861     0.98500
C263        C  0.57957016  0.22012057  0.64961069     0.93400
O264        O  0.57968011  0.19634795  0.65255291    -0.82700
O265        O  0.62539847  0.85463911  0.44257071    -0.82200
C266        C  0.63413706  0.82627975  0.25851884     0.97200
O267        O  0.65206100  0.83140853  0.28511256    -0.71300
O268        O  0.64983787  0.87499468  0.32496859    -0.74900
Al269      Al  0.65344880  0.84176975  0.34707026     1.49000
C270        C  0.63857662  0.89315279  0.34343476     0.92400
O271        O  0.58071428  0.86759682  0.34622443    -0.81100
O272        O  0.59197025  0.79893265  0.39108854    -0.74700
Al273      Al  0.60410206  0.85975288  0.39238302     1.90100
O274        O  0.57276833  0.82901149  0.32300642    -0.73800
O275        O  0.63135446  0.78739455  0.33719174    -0.73600
O276        O  0.61274276  0.82017902  0.27323543    -0.79300
O277        O  0.66231562  0.80915335  0.36721308    -0.77500
O278        O  0.62051435  0.83747517  0.35770422    -1.13600
O279        O  0.66166698  0.85352657  0.40670571    -0.72800
C280        C  0.64903141  0.85588793  0.44272369     0.97900
C281        C  0.56683322  0.85203626  0.32565615     0.94300
Al282      Al  0.60380700  0.81114163  0.33334006     1.55600
O283        O  0.62240377  0.88914328  0.37388125    -0.77400
C284        C  0.65337077  0.78847510  0.35355285     0.98500
C285        C  0.57978480  0.81221188  0.41933443     0.93400
O286        O  0.58181261  0.83589736  0.41909820    -0.82700
O287        O  0.82929888  0.58285221  0.28298137    -0.82200
C288        C  0.84951277  0.65462609  0.42241997     0.97200
O289        O  0.86105966  0.63414147  0.41586909    -0.71300
O290        O  0.83372505  0.59343275  0.40977281    -0.74900
Al291      Al  0.85771199  0.60798239  0.37106991     1.49000
C292        C  0.81366564  0.58207940  0.39981645     0.92400
O293        O  0.78409532  0.62932495  0.33764564    -0.81100
O294        O  0.83983130  0.65402261  0.26521546    -0.74700
Al295      Al  0.80887202  0.60756618  0.31177180     1.90100
O296        O  0.80327371  0.66533626  0.32750467    -0.73800
O297        O  0.87445690  0.65859161  0.32780353    -0.73600
O298        O  0.83715001  0.66491922  0.39113289    -0.79300
O299        O  0.88561220  0.61940650  0.33690681    -0.77500
O300        O  0.83493526  0.62423978  0.33718446    -1.13600
O301        O  0.85864650  0.57851855  0.33463362    -0.72800
C302        C  0.84737088  0.57063139  0.29967495     0.97900
C303        C  0.78371393  0.65303171  0.33702366     0.94300
Al304      Al  0.83832504  0.65762251  0.32858569     1.55600
O305        O  0.80288139  0.58551698  0.36210063    -0.77400
C306        C  0.89109539  0.64172238  0.32692760     0.98500
C307        C  0.82543080  0.64169774  0.23937061     0.93400
O308        O  0.81001168  0.62570666  0.25496234    -0.82700
O309        O  0.39691748  0.86704003  0.61405928    -0.82200
C310        C  0.38853583  0.83328542  0.79432251     0.97200
O311        O  0.37035456  0.84022239  0.76972442    -0.71300
O312        O  0.37345845  0.88497139  0.73360417    -0.74900
Al313      Al  0.36848529  0.85213169  0.70869990     1.49000
C314        C  0.38552264  0.90301177  0.71649195     0.92400
O315        O  0.44215824  0.87458955  0.71311179    -0.81100
O316        O  0.42595804  0.80854884  0.65659322    -0.74700
Al317      Al  0.41867109  0.86949270  0.66494299     1.90100
O318        O  0.44894235  0.83473446  0.72722556    -0.73800
O319        O  0.38823153  0.79683625  0.71203590    -0.73600
O320        O  0.40927405  0.82664077  0.77758709    -0.79300
O321        O  0.35784133  0.82029870  0.68597019    -0.77500
O322        O  0.40107072  0.84690871  0.69663288    -1.13600
O323        O  0.36055658  0.86506878  0.64994002    -0.72800
C324        C  0.37318505  0.86798059  0.61398679     0.97900
C325        C  0.45547376  0.85759138  0.73082221     0.94300
Al326      Al  0.41662147  0.81909919  0.71651424     1.55600
O327        O  0.40183110  0.89897797  0.68638019    -0.77400
C328        C  0.36625404  0.79895749  0.69638666     0.98500
C329        C  0.43928036  0.82173361  0.63023903     0.93400
O330        O  0.44005189  0.84541852  0.63510620    -0.82700
O331        O  0.19622583  0.58642582  0.73472458    -0.82200
C332        C  0.17615907  0.65858544  0.59724557     0.97200
O333        O  0.16448767  0.63798865  0.60296255    -0.71300
O334        O  0.19162040  0.59736931  0.60858772    -0.74900
Al335      Al  0.16746102  0.61146743  0.64725233     1.49000
C336        C  0.21173892  0.58616472  0.61779987     0.92400
O337        O  0.24079394  0.63421582  0.68128666    -0.81100
O338        O  0.18374177  0.65643767  0.75530773    -0.74700
Al339      Al  0.21635948  0.61159177  0.70648038     1.90100
O340        O  0.22079261  0.66926919  0.69592616    -0.73800
O341        O  0.14997508  0.66174921  0.69032930    -0.73600
O342        O  0.18831978  0.66863386  0.62941602    -0.79300
O343        O  0.13925446  0.62240419  0.68081687    -0.77500
O344        O  0.18996783  0.62779616  0.68185911    -1.13600
O345        O  0.16635878  0.58186527  0.68368822    -0.72800
C346        C  0.17781466  0.57425827  0.71860525     0.97900
C347        C  0.24071106  0.65786467  0.68565721     0.94300
Al348      Al  0.18605514  0.66093211  0.69189121     1.55600
O349        O  0.22265415  0.58964271  0.65547858    -0.77400
C350        C  0.13350249  0.64469596  0.69026782     0.98500
C351        C  0.19950101  0.64527400  0.78023569     0.93400
O352        O  0.21515084  0.62979016  0.76358155    -0.82700
C353        C  0.34981318  0.77631724  0.69224370     0.00900
C354        C  0.35860181  0.75412902  0.67068419     0.03800
C355        C  0.34314653  0.73247058  0.66835577    -0.12300
C356        C  0.31876691  0.73286564  0.68713114     0.23100
C357        C  0.31000923  0.75487773  0.70891139    -0.12900
C358        C  0.32544087  0.77646687  0.71169582     0.04500
C359        C  0.30170924  0.71063657  0.68263936     0.26900
C360        C  0.28484333  0.70914451  0.64564421    -0.13600
C361        C  0.26593521  0.69048918  0.64478611     0.05000
C362        C  0.26395590  0.67300770  0.68066136    -0.09500
C363        C  0.28193210  0.67339664  0.71603473     0.05800
C364        C  0.30071224  0.69224952  0.71713687    -0.13900
Br365      Br  0.27667604  0.75527136  0.73516063    -0.06000
Br366      Br  0.39131298  0.75361170  0.64224443    -0.00300
Br367      Br  0.24228949  0.68931643  0.59496218     0.00100
Br368      Br  0.32419192  0.69389203  0.76718687    -0.04300
Br369      Br  0.31330399  0.80565452  0.74452358     0.00200
Br370      Br  0.35515224  0.70215297  0.63925419    -0.03600
Br371      Br  0.28697203  0.73358360  0.59733066    -0.04500
Br372      Br  0.27959084  0.64928377  0.76479392    -0.00500
C373        C  0.66980010  0.76578185  0.35377916     0.00900
C374        C  0.69318997  0.76653695  0.33078440     0.03800
C375        C  0.70936513  0.74557362  0.33145759    -0.12300
C376        C  0.70226652  0.72341167  0.35434331     0.23100
C377        C  0.67877794  0.72233535  0.37662744    -0.12900
C378        C  0.66257988  0.74347781  0.37641609     0.04500
C379        C  0.71999370  0.70162740  0.35478614     0.26900
C380        C  0.72091786  0.68485999  0.31736417    -0.13600
C381        C  0.74084809  0.66746340  0.31328761     0.05000
C382        C  0.76015499  0.66703540  0.34622736    -0.09500
C383        C  0.75821613  0.68249389  0.38530870     0.05800
C384        C  0.73815939  0.69969319  0.38963235    -0.13900
Br385      Br  0.66908379  0.69190437  0.40764458    -0.06000
Br386      Br  0.70291351  0.79575491  0.29595777    -0.00300
Br387      Br  0.74264235  0.64534186  0.26108749     0.00100
Br388      Br  0.73624948  0.72167065  0.44205726    -0.04300
Br389      Br  0.63102364  0.74223331  0.40865100     0.00200
Br390      Br  0.74156995  0.74713666  0.30098071    -0.03600
Br391      Br  0.69574433  0.68700944  0.27021977    -0.04500
Br392      Br  0.78315411  0.68025918  0.43284116    -0.00500
C393        C  0.45538680  0.80996295  0.59456095     0.00900
C394        C  0.47113656  0.78918662  0.60463762     0.03800
C395        C  0.49057810  0.78227777  0.57424627    -0.12300
C396        C  0.49485260  0.79643909  0.53451311     0.23100
C397        C  0.47745437  0.81525472  0.52221216    -0.12900
C398        C  0.45768380  0.82179975  0.55175559     0.04500
C399        C  0.51902053  0.79418025  0.50878412     0.26900
C400        C  0.54077426  0.80633012  0.52575255    -0.13600
C401        C  0.56214965  0.80910781  0.49789713     0.05000
C402        C  0.56155752  0.80105053  0.45200244    -0.09500
C403        C  0.54048073  0.78719559  0.43613093     0.05800
C404        C  0.51965088  0.78305196  0.46509112    -0.13900
Br405      Br  0.48129614  0.83309813  0.46570239    -0.06000
Br406      Br  0.46800533  0.77144788  0.66156277    -0.00300
Br407      Br  0.59205774  0.82492966  0.52223553     0.00100
Br408      Br  0.49120769  0.76344464  0.44438380    -0.04300
Br409      Br  0.43383301  0.84722796  0.53310676     0.00200
Br410      Br  0.51212613  0.75404869  0.58748528    -0.03600
Br411      Br  0.54061516  0.82113863  0.58599438    -0.04500
Br412      Br  0.53842581  0.77673084  0.37327316    -0.00500
C413        C  0.75624227  0.36693623  0.69288116     0.00900
C414        C  0.75148271  0.35176281  0.65429321     0.03800
C415        C  0.73279930  0.33294224  0.65582003    -0.12300
C416        C  0.71850970  0.32953350  0.69572075     0.23100
C417        C  0.72216022  0.34578482  0.73330913    -0.12900
C418        C  0.74111567  0.36437881  0.73199751     0.04500
C419        C  0.70145740  0.30741605  0.69964678     0.26900
C420        C  0.67672377  0.30829766  0.68237705    -0.13600
C421        C  0.66107459  0.28684698  0.68479888     0.05000
C422        C  0.66979667  0.26474314  0.70615109    -0.09500
C423        C  0.69449509  0.26409672  0.72415960     0.05800
C424        C  0.71036947  0.28520918  0.72015412    -0.13900
Br425      Br  0.70219875  0.34138114  0.78754786    -0.06000
Br426      Br  0.77107048  0.35642010  0.59972198    -0.00300
Br427      Br  0.62829757  0.28731752  0.65649289     0.00100
Br428      Br  0.74450917  0.28380620  0.74281414    -0.04300
Br429      Br  0.74774956  0.38491103  0.78510273     0.00200
Br430      Br  0.72788643  0.31064640  0.60444561    -0.03600
Br431      Br  0.66438274  0.33904209  0.65579663    -0.04500
Br432      Br  0.70650176  0.23491736  0.75670417    -0.00500
C433        C  0.80414218  0.56289708  0.43160009     0.00900
C434        C  0.81912236  0.54153077  0.44044503     0.03800
C435        C  0.81172796  0.52408324  0.47352459    -0.12300
C436        C  0.78883963  0.52732499  0.49697723     0.23100
C437        C  0.77321487  0.54802616  0.48671105    -0.12900
C438        C  0.78102278  0.56600179  0.45435002     0.04500
C439        C  0.78323195  0.51023566  0.53551920     0.26900
C440        C  0.77567213  0.48512115  0.52716063    -0.13600
C441        C  0.77865039  0.46680461  0.56134288     0.05000
C442        C  0.78939273  0.47355997  0.60353519    -0.09500
C443        C  0.79337471  0.49929185  0.61377416     0.05800
C444        C  0.79060223  0.51757223  0.57969363    -0.13900
Br445      Br  0.74170349  0.55210053  0.51824015    -0.06000
Br446      Br  0.84987450  0.53567771  0.40712104    -0.00300
Br447      Br  0.76840428  0.43240946  0.55073710     0.00100
Br448      Br  0.80006788  0.55218752  0.59192707    -0.04300
Br449      Br  0.76106004  0.59567825  0.44336182     0.00200
Br450      Br  0.83382300  0.49636074  0.48853770    -0.03600
Br451      Br  0.76390315  0.47550802  0.46744694    -0.04500
Br452      Br  0.80496840  0.50966009  0.67288231    -0.00500
C453        C  0.23385933  0.47918077  0.40893450     0.00900
C454        C  0.23075213  0.50500964  0.39896833     0.03800
C455        C  0.23449207  0.52332437  0.43313315    -0.12300
C456        C  0.24144188  0.51590314  0.47732185     0.23100
C457        C  0.24754755  0.49052869  0.48578659    -0.12900
C458        C  0.24346396  0.47214165  0.45178414     0.04500
C459        C  0.23553975  0.53291021  0.51609919     0.26900
C460        C  0.25265052  0.55143526  0.53158040    -0.13600
C461        C  0.24529986  0.56876929  0.56573483     0.05000
C462        C  0.22100211  0.56720210  0.58485154    -0.09500
C463        C  0.20443704  0.54780046  0.57065623     0.05800
C464        C  0.21146337  0.53115684  0.53579084    -0.13900
Br465      Br  0.25871634  0.48082864  0.54566952    -0.06000
Br466      Br  0.21782848  0.51536478  0.34085151    -0.00300
Br467      Br  0.26781784  0.59544863  0.58433584     0.00100
Br468      Br  0.18748264  0.50648874  0.51338532    -0.04300
Br469      Br  0.24913622  0.43713304  0.46497698     0.00200
Br470      Br  0.22677352  0.55827926  0.42138090    -0.03600
Br471      Br  0.28568252  0.55336887  0.50488946    -0.04500
Br472      Br  0.17214096  0.54310399  0.59962893    -0.00500
C473        C  0.35637876  0.27071144  0.35569045     0.00900
C474        C  0.32970375  0.26860547  0.36003825     0.03800
C475        C  0.31386219  0.28908736  0.34994491    -0.12300
C476        C  0.32401499  0.31305240  0.34130008     0.23100
C477        C  0.35040596  0.31608678  0.34077098    -0.12900
C478        C  0.36655428  0.29499196  0.34640156     0.04500
C479        C  0.30644217  0.33489550  0.33498474     0.26900
C480        C  0.29921145  0.34266364  0.29091106    -0.13600
C481        C  0.27960689  0.36040265  0.28521334     0.05000
C482        C  0.26699395  0.37045991  0.32346769    -0.09500
C483        C  0.27430417  0.36277621  0.36740402     0.05800
C484        C  0.29420835  0.34549374  0.37319253    -0.13900
Br485      Br  0.36420751  0.34932809  0.33167515    -0.06000
Br486      Br  0.31376824  0.23848286  0.38317214    -0.00300
Br487      Br  0.26874163  0.36966519  0.22488216     0.00100
Br488      Br  0.30383921  0.33508356  0.43359875    -0.04300
Br489      Br  0.40232145  0.29998287  0.33958771     0.00200
Br490      Br  0.27779487  0.28416612  0.34631831    -0.03600
Br491      Br  0.31508739  0.32771344  0.23832926    -0.04500
Br492      Br  0.25542537  0.37411899  0.41951857    -0.00500
C493        C  0.56245962  0.23151972  0.61579075     0.00900
C494        C  0.56842218  0.23007527  0.56916641     0.03800
C495        C  0.54950738  0.23327222  0.53608271    -0.12300
C496        C  0.52435658  0.23728531  0.54957893     0.23100
C497        C  0.51877794  0.24092504  0.59607234    -0.12900
C498        C  0.53787497  0.23831554  0.62909957     0.04500
C499        C  0.50365968  0.23228202  0.51645891     0.26900
C500        C  0.49066906  0.25194321  0.49451848    -0.13600
C501        C  0.47097280  0.24637672  0.46349229     0.05000
C502        C  0.46519118  0.22102743  0.45230480    -0.09500
C503        C  0.47952853  0.20148333  0.47264333     0.05800
C504        C  0.49755492  0.20709037  0.50618234    -0.13900
Br505      Br  0.48446477  0.24671020  0.61470622    -0.06000
Br506      Br  0.60210517  0.22169422  0.55079290    -0.00300
Br507      Br  0.45160096  0.27351818  0.43784400     0.00100
Br508      Br  0.51402630  0.17999898  0.53860617    -0.04300
Br509      Br  0.52976886  0.24162561  0.69283112     0.00200
Br510      Br  0.55741641  0.22941435  0.47230253    -0.03600
Br511      Br  0.50016613  0.28636975  0.50694826    -0.04500
Br512      Br  0.47717163  0.16687734  0.45201452    -0.00500
C513        C  0.67142870  0.98864451  0.81815711     0.00900
C514        C  0.67231521  0.99503857  0.77141350     0.03800
C515        C  0.66622545  0.01968487  0.75738331    -0.12300
C516        C  0.65999257  0.03827999  0.78984135     0.23100
C517        C  0.65956034  0.03221249  0.83635166    -0.12900
C518        C  0.66456704  0.00742718  0.85049714     0.04500
C519        C  0.65354701  0.06426152  0.77525997     0.26900
C520        C  0.67279369  0.08172487  0.76576968    -0.13600
C521        C  0.66670726  0.10634890  0.75203136     0.05000
C522        C  0.64121952  0.11398807  0.74949665    -0.09500
C523        C  0.62197818  0.09656790  0.76020309     0.05800
C524        C  0.62815323  0.07169188  0.77234397    -0.13900
Br525      Br  0.65254523  0.05832814  0.88072527    -0.06000
Br526      Br  0.68054022  0.97003585  0.72582362    -0.00300
Br527      Br  0.69356715  0.12881861  0.73410101     0.00100
Br528      Br  0.60184910  0.04764065  0.78542276    -0.04300
Br529      Br  0.66224450  0.00004053  0.91478940     0.00200
Br530      Br  0.66609412  0.02816487  0.69352766    -0.03600
Br531      Br  0.70757209  0.07183825  0.77226225    -0.04500
Br532      Br  0.58715212  0.10687695  0.76084602    -0.00500
C533        C  0.63840025  0.82845868  0.20946027     0.00900
C534        C  0.64337865  0.80689323  0.18284827     0.03800
C535        C  0.64857427  0.80947562  0.13610667    -0.12300
C536        C  0.64968706  0.83369099  0.11674424     0.23100
C537        C  0.64499311  0.85522009  0.14361419    -0.12900
C538        C  0.63894731  0.85256954  0.18969239     0.04500
C539        C  0.65546420  0.83725654  0.06809999     0.23700
C540        C  0.68063389  0.84052296  0.05425360    -0.13600
C541        C  0.68590186  0.85112388  0.01151810     0.05000
C542        C  0.66591286  0.85847022  0.98298091    -0.09500
C543        C  0.64084256  0.85293791  0.99518990     0.05800
C544        C  0.63563200  0.84231002  0.03775782    -0.13900
Br545      Br  0.64715117  0.88850231  0.11720982    -0.06000
Br546      Br  0.64402359  0.77412092  0.21095870    -0.00300
Br547      Br  0.72029896  0.85758240  0.99393949     0.00100
Br548      Br  0.60124714  0.83651343  0.05630073    -0.04300
Br549      Br  0.63111970  0.88213481  0.22527507     0.00200
Br550      Br  0.65414192  0.78012969  0.09856218    -0.03600
Br551      Br  0.70766690  0.83227643  0.09542488    -0.04500
Br552      Br  0.61351035  0.86014046  0.95397909    -0.00500
C553        C  0.69161526  0.89221468  0.71257279     0.00900
C554        C  0.66752241  0.89497114  0.69318911     0.03800
C555        C  0.66359328  0.88864378  0.64742106    -0.12300
C556        C  0.68405295  0.88094206  0.62033692     0.23100
C557        C  0.70854840  0.88035983  0.63854783    -0.12900
C558        C  0.71238832  0.88596686  0.68485410     0.04500
C559        C  0.67948481  0.87401375  0.57245372     0.26900
C560        C  0.67588341  0.84852205  0.56026567    -0.13600
C561        C  0.66736851  0.84234750  0.51631744     0.05000
C562        C  0.66184714  0.86171003  0.48543531    -0.09500
C563        C  0.66655772  0.88707727  0.49694309     0.05800
C564        C  0.67587902  0.89319249  0.54023023    -0.13900
Br565      Br  0.73656321  0.87139637  0.60004604    -0.06000
Br566      Br  0.64027306  0.90913780  0.72847381    -0.00300
Br567      Br  0.66246136  0.80760604  0.49857463     0.00100
Br568      Br  0.68241609  0.92791736  0.55651499    -0.04300
Br569      Br  0.74593579  0.88451353  0.70996018     0.00200
Br570      Br  0.63003161  0.88990810  0.62206512    -0.03600
Br571      Br  0.68124588  0.82233642  0.60454031    -0.04500
Br572      Br  0.65863159  0.91362851  0.45472282    -0.00500
C573        C  0.60348191  0.88669263  0.83851576     0.00900
C574        C  0.59742333  0.86763005  0.80605966     0.03800
C575        C  0.57215915  0.86287782  0.79419620    -0.12300
C576        C  0.55268622  0.87721742  0.81362876     0.23100
C577        C  0.55830622  0.89538969  0.84716435    -0.12900
C578        C  0.58352120  0.90004482  0.85993341     0.04500
C579        C  0.52660494  0.87423278  0.79586851     0.26900
C580        C  0.51962795  0.88687130  0.75577677    -0.13600
C581        C  0.49644773  0.88150159  0.73450648     0.05000
C582        C  0.47941076  0.86424146  0.75449496    -0.09500
C583        C  0.48599113  0.85260768  0.79621248     0.05800
C584        C  0.50969738  0.85725248  0.81626538    -0.13900
Br585      Br  0.53116941  0.91384224  0.87545628    -0.06000
Br586      Br  0.62314341  0.84832177  0.77516012    -0.00300
Br587      Br  0.48963243  0.89611397  0.67567205     0.00100
Br588      Br  0.51952656  0.83975283  0.87094307    -0.04300
Br589      Br  0.58989687  0.92387488  0.90866575     0.00200
Br590      Br  0.56386598  0.83672913  0.75052826    -0.03600
Br591      Br  0.54255505  0.91098328  0.72924911    -0.04500
Br592      Br  0.46265254  0.83067478  0.82715079    -0.00500
C593        C  0.98165913  0.68255839  0.76116046     0.00900
C594        C  0.00044070  0.70123395  0.75647077     0.03800
C595        C  0.02447706  0.69461505  0.74045565    -0.12300
C596        C  0.02991644  0.66934796  0.72938343     0.23100
C597        C  0.01068604  0.65101642  0.73104013    -0.12900
C598        C  0.98652321  0.65766038  0.74663997     0.04500
C599        C  0.05626420  0.66201979  0.71898727     0.26900
C600        C  0.06458198  0.66034202  0.67353577    -0.13600
C601        C  0.08994882  0.65470044  0.66416475     0.05000
C602        C  0.10707192  0.65093599  0.70021284    -0.09500
C603        C  0.09881800  0.65275994  0.74559645     0.05800
C604        C  0.07341283  0.65811175  0.75501384    -0.13900
Br605      Br  0.01775702  0.61668143  0.71350270    -0.06000
Br606      Br  0.99413197  0.73556751  0.77525475    -0.00300
Br607      Br  0.10147054  0.65281431  0.60196488     0.00100
Br608      Br  0.06202643  0.66037067  0.81730060    -0.04300
Br609      Br  0.95990911  0.63281958  0.74747535     0.00200
Br610      Br  0.05050275  0.71991400  0.73557804    -0.03600
Br611      Br  0.04127039  0.66631596  0.62435050    -0.04500
Br612      Br  0.12246189  0.64806326  0.79467889    -0.00500
C613        C  0.85989618  0.76914416  0.85006935     0.00900
C614        C  0.84113431  0.76839845  0.88409411     0.03800
C615        C  0.82346987  0.78803141  0.88779665    -0.12300
C616        C  0.82468722  0.80875842  0.85811493     0.23100
C617        C  0.84460084  0.81055169  0.82662933    -0.12900
C618        C  0.86195942  0.79062569  0.82206628     0.04500
C619        C  0.80306074  0.82647990  0.85549953     0.26900
C620        C  0.78311578  0.82090323  0.82554704    -0.13600
C621        C  0.76197623  0.83677462  0.82333479     0.05000
C622        C  0.76023208  0.85830570  0.85220677    -0.09500
C623        C  0.78034945  0.86368148  0.88262714     0.05800
C624        C  0.80177249  0.84795314  0.88373208    -0.13900
Br625      Br  0.84709688  0.83979662  0.78813294    -0.06000
Br626      Br  0.83927867  0.74036402  0.92552566    -0.00300
Br627      Br  0.73607043  0.82858339  0.77919237     0.00100
Br628      Br  0.82932774  0.85530601  0.92456433    -0.04300
Br629      Br  0.88670414  0.79169630  0.77406076     0.00200
Br630      Br  0.79655617  0.78593472  0.93171828    -0.03600
Br631      Br  0.78469490  0.79084357  0.78803365    -0.04500
Br632      Br  0.77823170  0.89133425  0.92550907    -0.00500
C633        C  0.82749388  0.64596997  0.19006960     0.00900
C634        C  0.84057019  0.62844985  0.16280630     0.03800
C635        C  0.84718272  0.63464478  0.11796586    -0.12300
C636        C  0.84109016  0.65852844  0.10042565     0.23100
C637        C  0.82710593  0.67569887  0.12695751    -0.12900
C638        C  0.82013093  0.66931046  0.17168663     0.04500
C639        C  0.85064126  0.66571892  0.05491542     0.26900
C640        C  0.87591236  0.67329561  0.05009234    -0.13600
C641        C  0.88611495  0.67715567  0.00654622     0.05000
C642        C  0.87082810  0.67407197  0.96744880    -0.09500
C643        C  0.84529545  0.66694935  0.97252764     0.05800
C644        C  0.83527640  0.66282221  0.01619970    -0.13900
Br645      Br  0.81863139  0.70831313  0.10269003    -0.06000
Br646      Br  0.85127402  0.59670840  0.18764744    -0.00300
Br647      Br  0.92103791  0.68687158  0.00145499     0.00100
Br648      Br  0.80066317  0.65242765  0.02327445    -0.04300
Br649      Br  0.80077794  0.69253678  0.20824600     0.00200
Br650      Br  0.86579283  0.61090180  0.08107308    -0.03600
Br651      Br  0.89663466  0.67811528  0.10351544    -0.04500
Br652      Br  0.82432833  0.66068342  0.91986033    -0.00500
C653        C  0.87754884  0.70587124  0.69121554     0.00900
C654        C  0.85253035  0.71025752  0.67732712     0.03800
C655        C  0.84550453  0.70608538  0.63170994    -0.12300
C656        C  0.86319348  0.69627883  0.60068161     0.23100
C657        C  0.88821212  0.69207298  0.61449670    -0.12900
C658        C  0.89551205  0.69743838  0.65936348     0.04500
C659        C  0.85545388  0.68802956  0.55466435     0.26900
C660        C  0.84347182  0.66450231  0.54922051    -0.13600
C661        C  0.84051719  0.65413627  0.50555323     0.05000
C662        C  0.85051685  0.66670338  0.46746439    -0.09500
C663        C  0.86165146  0.69068417  0.47269385     0.05800
C664        C  0.86351488  0.70163147  0.51624472    -0.13900
Br665      Br  0.91210720  0.67709275  0.57270563    -0.06000
Br666      Br  0.82777373  0.72123515  0.72115044    -0.00300
Br667      Br  0.82239167  0.62290199  0.49834554     0.00100
Br668      Br  0.87837105  0.73460874  0.52398308    -0.04300
Br669      Br  0.92975472  0.69117798  0.67723592     0.00200
Br670      Br  0.81155075  0.71282067  0.61193358    -0.03600
Br671      Br  0.83245467  0.64568405  0.60178424    -0.04500
Br672      Br  0.87638771  0.70750508  0.42102181    -0.00500
C673        C  0.85203514  0.48816898  0.74781198     0.00900
C674        C  0.87633628  0.49753224  0.73713273     0.03800
C675        C  0.88332737  0.52216636  0.74990312    -0.12300
C676        C  0.86646058  0.53745313  0.77431854     0.23100
C677        C  0.84289327  0.52784733  0.78747551    -0.12900
C678        C  0.83567099  0.50324459  0.77467631     0.04500
C679        C  0.87347077  0.56377789  0.78595063     0.26900
C680        C  0.88457260  0.56928822  0.82842439    -0.13600
C681        C  0.89093050  0.59429800  0.83973961     0.05000
C682        C  0.88639098  0.61383191  0.80839329    -0.09500
C683        C  0.87563864  0.60825137  0.76560450     0.05800
C684        C  0.86897363  0.58327512  0.75455035    -0.13900
Br685      Br  0.82003570  0.54917831  0.82118206    -0.06000
Br686      Br  0.90076756  0.47665491  0.70625112    -0.00300
Br687      Br  0.90488785  0.60188138  0.89896823     0.00100
Br688      Br  0.85340460  0.57568433  0.69663382    -0.04300
Br689      Br  0.80236729  0.49182457  0.79117985     0.00200
Br690      Br  0.91581855  0.53550329  0.73283781    -0.03600
Br691      Br  0.89067969  0.54247309  0.87118262    -0.04500
Br692      Br  0.87091689  0.63462717  0.72146840    -0.00500
C693        C  0.98702107  0.35783531  0.26165359     0.00900
C694        C  0.00592038  0.34046829  0.27568525     0.03800
C695        C  0.02978643  0.34942357  0.28957409    -0.12300
C696        C  0.03472883  0.37546377  0.29167808     0.23100
C697        C  0.01519258  0.39268014  0.28380517    -0.12900
C698        C  0.99137357  0.38401305  0.26949252     0.04500
C699        C  0.06069526  0.38479427  0.30064865     0.26900
C700        C  0.07021547  0.38581121  0.34546979    -0.13600
C701        C  0.09541759  0.39290009  0.35320999     0.05000
C702        C  0.11096207  0.39946860  0.31627079    -0.09500
C703        C  0.10110519  0.39983609  0.27180728     0.05800
C704        C  0.07603656  0.39236406  0.26392478    -0.13900
Br705      Br  0.02160810  0.42833174  0.29163973    -0.06000
Br706      Br  0.99995155  0.30454096  0.27754064    -0.00300
Br707      Br  0.10873567  0.39365426  0.41437958     0.00100
Br708      Br  0.06274296  0.39220641  0.20273254    -0.04300
Br709      Br  0.96492765  0.40890866  0.26323622     0.00200
Br710      Br  0.05635144  0.32597252  0.30427298    -0.03600
Br711      Br  0.04865470  0.37757667  0.39608040    -0.04500
Br712      Br  0.12220879  0.41013602  0.22176782    -0.00500
C713        C  0.83316395  0.38631062  0.83188877     0.00900
C714        C  0.82783038  0.40447829  0.86635178     0.03800
C715        C  0.83738583  0.40135834  0.91070891    -0.12300
C716        C  0.85196266  0.38014118  0.92132195     0.23100
C717        C  0.85641567  0.36151780  0.88820838    -0.12900
C718        C  0.84653145  0.36414943  0.84407670     0.04500
C719        C  0.86139063  0.37648032  0.96824583     0.26900
C720        C  0.88603904  0.38367318  0.97986241    -0.13600
C721        C  0.89548484  0.37870992  0.02371114     0.05000
C722        C  0.88017442  0.36618992  0.05636181    -0.09500
C723        C  0.85505126  0.35969248  0.04439623     0.05800
C724        C  0.84583409  0.36486884  0.00056363    -0.13900
Br725      Br  0.87652956  0.33245530  0.90369855    -0.06000
Br726      Br  0.80766024  0.43396127  0.85486827    -0.00300
Br727      Br  0.92915868  0.39038110  0.03796167     0.00100
Br728      Br  0.81181233  0.35558273  0.98383953    -0.04300
Br729      Br  0.85030078  0.33615655  0.80216749     0.00200
Br730      Br  0.83103700  0.42636981  0.95742221    -0.03600
Br731      Br  0.90680366  0.40026400  0.93500367    -0.04500
Br732      Br  0.83283217  0.34257140  0.08598340    -0.00500
C733        C  0.88544790  0.32737037  0.33522686     0.00900
C734        C  0.90091644  0.34054641  0.36657832     0.03800
C735        C  0.89159228  0.34666088  0.41001184    -0.12300
C736        C  0.86704304  0.33939935  0.42250726     0.23100
C737        C  0.85237319  0.32459300  0.39272994    -0.12900
C738        C  0.86169364  0.31827920  0.34935564     0.04500
C739        C  0.85640815  0.34889796  0.46587615     0.26900
C740        C  0.85879487  0.33476722  0.50601973    -0.13600
C741        C  0.85230015  0.34557479  0.54828266     0.05000
C742        C  0.84410213  0.37094644  0.55054591    -0.09500
C743        C  0.84101382  0.38471309  0.50978063     0.05800
C744        C  0.84642333  0.37340238  0.46757577    -0.13900
Br745      Br  0.81907653  0.31408558  0.41072346    -0.06000
Br746      Br  0.93420792  0.35199095  0.34980963    -0.00300
Br747      Br  0.85718139  0.32606443  0.60292062     0.00100
Br748      Br  0.84090684  0.39165278  0.41167065    -0.04300
Br749      Br  0.84220990  0.29645786  0.30995045     0.00200
Br750      Br  0.91182951  0.36639741  0.45179162    -0.03600
Br751      Br  0.87226054  0.30104197  0.50292377    -0.04500
Br752      Br  0.83022144  0.41938002  0.51082683    -0.00500
C753        C  0.85471981  0.54583291  0.28050708     0.00900
C754        C  0.83630623  0.52685584  0.27356930     0.03800
C755        C  0.84366536  0.50216800  0.26193793    -0.12300
C756        C  0.86937094  0.49613847  0.25809944     0.23100
C757        C  0.88773719  0.51494427  0.26495703    -0.12900
C758        C  0.88046286  0.53980565  0.27532508     0.04500
C759        C  0.87710278  0.47012637  0.24564340     0.26900
C760        C  0.87943923  0.45150451  0.27936659    -0.13600
C761        C  0.88646518  0.42677558  0.26721133     0.05000
C762        C  0.89126589  0.42053037  0.22108341    -0.09500
C763        C  0.88898944  0.43942308  0.18744549     0.05800
C764        C  0.88195209  0.46407852  0.19980578    -0.13900
Br765      Br  0.92293817  0.50626775  0.26144265    -0.06000
Br766      Br  0.80103162  0.53372324  0.28342310    -0.00300
Br767      Br  0.89010073  0.40191314  0.31445269     0.00100
Br768      Br  0.87825976  0.48970791  0.15381343    -0.04300
Br769      Br  0.90591831  0.56566995  0.28121409     0.00200
Br770      Br  0.81861016  0.47621247  0.25254331    -0.03600
Br771      Br  0.87283512  0.46004630  0.34225789    -0.04500
Br772      Br  0.89363629  0.43158889  0.12372514    -0.00500
C773        C  0.72431680  0.96042826  0.96643556     0.00900
C774        C  0.71590872  0.95936627  0.01208198     0.03800
C775        C  0.71914641  0.98030934  0.04112623    -0.12300
C776        C  0.73266889  0.00162374  0.02623258     0.23100
C777        C  0.74518616  0.00067145  0.98408971    -0.12900
C778        C  0.74071139  0.98047867  0.95367034     0.04500
C779        C  0.73170274  0.02573499  0.05261933     0.26900
C780        C  0.71657557  0.04565914  0.03691991    -0.13600
C781        C  0.71355510  0.06765127  0.06324582     0.05000
C782        C  0.72413425  0.06928439  0.10759362    -0.09500
C783        C  0.74154074  0.05027101  0.12110470     0.05800
C784        C  0.74540144  0.02880133  0.09328082    -0.13900
Br785      Br  0.76732273  0.02807210  0.96741347    -0.06000
Br786      Br  0.70035170  0.92909845  0.03566419    -0.00300
Br787      Br  0.69516797  0.09543532  0.03670602     0.00100
Br788      Br  0.76907897  0.00302595  0.11093948    -0.04300
Br789      Br  0.75629339  0.98208811  0.89427443     0.00200
Br790      Br  0.70356104  0.98024262  0.10022882    -0.03600
Br791      Br  0.69883818  0.04246836  0.97984905    -0.04500
Br792      Br  0.76009365  0.05225111  0.17769841    -0.00500
C793        C  0.67349481  0.04478111  0.25751552     0.00900
C794        C  0.66956778  0.02471320  0.22617329     0.03800
C795        C  0.66436002  0.00021399  0.24189276    -0.12300
C796        C  0.66251860  0.99548951  0.28884560     0.23100
C797        C  0.66624043  0.01532102  0.32025136    -0.12900
C798        C  0.67197490  0.03983431  0.30476328     0.04500
C799        C  0.65638690  0.96957913  0.30477813     0.26900
C800        C  0.63112779  0.96154084  0.30673672    -0.13600
C801        C  0.62525975  0.93658466  0.31913807     0.05000
C802        C  0.64469381  0.91943158  0.32991421    -0.09500
C803        C  0.67005877  0.92759820  0.32795333     0.05800
C804        C  0.67582309  0.95255364  0.31530473    -0.13900
Br805      Br  0.66314076  0.00872617  0.38456240    -0.06000
Br806      Br  0.67229040  0.03007480  0.16133115    -0.00300
Br807      Br  0.59056010  0.92575074  0.31823274     0.00100
Br808      Br  0.71042830  0.96349971  0.31155009    -0.04300
Br809      Br  0.67669051  0.06657988  0.34868298     0.00200
Br810      Br  0.65990599  0.97270600  0.19923634    -0.03600
Br811      Br  0.60460453  0.98476482  0.29111595    -0.04500
Br812      Br  0.69714452  0.90510946  0.34419028    -0.00500
C813        C  0.76092256  0.17573914  0.21245552     0.00900
C814        C  0.77685613  0.17352581  0.17398030     0.03800
C815        C  0.79538649  0.19208677  0.16514581    -0.12300
C816        C  0.80025749  0.21144879  0.19715787     0.23100
C817        C  0.78574301  0.21248346  0.23739379    -0.12900
C818        C  0.76559048  0.19550650  0.24408364     0.04500
C819        C  0.81980093  0.23138698  0.18833602     0.26900
C820        C  0.84578004  0.22587363  0.19016086    -0.13600
C821        C  0.86390934  0.24527508  0.18500824     0.05000
C822        C  0.85637043  0.27090687  0.18319272    -0.09500
C823        C  0.83009240  0.27622741  0.18226691     0.05800
C824        C  0.81225528  0.25649874  0.18129140    -0.13900
Br825      Br  0.79334136  0.23754181  0.28351851    -0.06000
Br826      Br  0.77333585  0.14551188  0.13237036    -0.00300
Br827      Br  0.89892077  0.23614626  0.17908979     0.00100
Br828      Br  0.77704732  0.26391892  0.17119350    -0.04300
Br829      Br  0.74476226  0.19958449  0.29750539     0.00200
Br830      Br  0.81285290  0.19206615  0.10754676    -0.03600
Br831      Br  0.85661517  0.19182120  0.20188810    -0.04500
Br832      Br  0.81717224  0.31006615  0.18900261    -0.00500
C833        C  0.63706344  0.20565464  0.86017005     0.00900
C834        C  0.64936242  0.22462427  0.88549419     0.03800
C835        C  0.65564244  0.22035387  0.93142303    -0.12300
C836        C  0.65029937  0.19683059  0.95136048     0.23100
C837        C  0.63777514  0.17798525  0.92600123    -0.12900
C838        C  0.63070465  0.18260617  0.88076970     0.04500
C839        C  0.65796995  0.19140365  0.99876558     0.26900
C840        C  0.68191937  0.18114497  0.00756563    -0.13600
C841        C  0.68761163  0.17192092  0.05117065     0.05000
C842        C  0.66930875  0.17268699  0.08569124    -0.09500
C843        C  0.64614713  0.18477795  0.07789174     0.05800
C844        C  0.64041359  0.19403068  0.03434326    -0.13900
Br845      Br  0.63117307  0.14545855  0.95283183    -0.06000
Br846      Br  0.65755939  0.25625720  0.85701643    -0.00300
Br847      Br  0.72008606  0.15751608  0.06331045     0.00100
Br848      Br  0.60807976  0.20912628  0.02255423    -0.04300
Br849      Br  0.61275675  0.15710246  0.84662636     0.00200
Br850      Br  0.67179872  0.24639021  0.96701147    -0.03600
Br851      Br  0.70630112  0.17846369  0.95916145    -0.04500
Br852      Br  0.62230706  0.18854679  0.12689481    -0.00500
C853        C  0.65837655  0.16520100  0.58769372     0.00900
C854        C  0.66075143  0.13958110  0.57564444     0.03800
C855        C  0.66957939  0.13290724  0.53213153    -0.12300
C856        C  0.67523140  0.15189244  0.50035322     0.23100
C857        C  0.67402926  0.17748903  0.51333297    -0.12900
C858        C  0.66638133  0.18407549  0.55757061     0.04500
C859        C  0.68086631  0.14520151  0.45248689     0.26900
C860        C  0.70588964  0.14477645  0.43683582    -0.13600
C861        C  0.71087137  0.14205505  0.38997379     0.05000
C862        C  0.69070365  0.13885383  0.35897802    -0.09500
C863        C  0.66594437  0.13613482  0.37582811     0.05800
C864        C  0.66092603  0.14035276  0.42211106    -0.13900
Br865      Br  0.68150681  0.20350256  0.46969055    -0.06000
Br866      Br  0.65173744  0.11372287  0.61864443    -0.00300
Br867      Br  0.74522625  0.14354813  0.36901341     0.00100
Br868      Br  0.62659819  0.14032546  0.44372663    -0.04300
Br869      Br  0.66724293  0.21878468  0.57741513     0.00200
Br870      Br  0.67329140  0.09789821  0.51537672    -0.03600
Br871      Br  0.73313537  0.14828684  0.47992038    -0.04500
Br872      Br  0.63912702  0.12426937  0.33667328    -0.00500
C873        C  0.47723052  0.17445791  0.28776179     0.00900
C874        C  0.49061053  0.19029988  0.25714407     0.03800
C875        C  0.51426963  0.18274420  0.23991204    -0.12300
C876        C  0.52543433  0.16015563  0.25461217     0.23100
C877        C  0.51158768  0.14355441  0.28202530    -0.12900
C878        C  0.48721301  0.15008203  0.29666338     0.04500
C879        C  0.55244404  0.15497490  0.24448725     0.26900
C880        C  0.55942103  0.13811887  0.20956431    -0.13600
C881        C  0.58510041  0.13338302  0.20066428     0.05000
C882        C  0.60414804  0.14575025  0.22648231    -0.09500
C883        C  0.59687319  0.16354132  0.26021766     0.05800
C884        C  0.57121420  0.16740598  0.27002368    -0.13900
Br885      Br  0.52661556  0.11218275  0.30119651    -0.06000
Br886      Br  0.47794743  0.22287838  0.23915418    -0.00300
Br887      Br  0.59364310  0.11151164  0.15018418     0.00100
Br888      Br  0.56149055  0.18939412  0.31964533    -0.04300
Br889      Br  0.46747976  0.12432797  0.32601541     0.00200
Br890      Br  0.53213976  0.20356417  0.19687017    -0.03600
Br891      Br  0.53358518  0.12171012  0.17371834    -0.04500
Br892      Br  0.62143588  0.18326235  0.29354437    -0.00500
C893        C  0.37885826  0.11405368  0.32303519     0.00900
C894        C  0.35855228  0.10987815  0.29243872     0.03800
C895        C  0.35327376  0.08533559  0.27653782    -0.12300
C896        C  0.36936120  0.06528327  0.28787959     0.23100
C897        C  0.38994889  0.06946314  0.31704975    -0.12900
C898        C  0.39369486  0.09330656  0.33689264     0.04500
C899        C  0.36412725  0.03946626  0.27087732     0.26900
C900        C  0.35264592  0.02175700  0.29983187    -0.13600
C901        C  0.34852903  0.99693428  0.28459780     0.05000
C902        C  0.35549307  0.98984270  0.23999325    -0.09500
C903        C  0.36646941  0.00779476  0.21065723     0.05800
C904        C  0.37106936  0.03247674  0.22632369    -0.13900
Br905      Br  0.41319226  0.04237815  0.32936004    -0.06000
Br906      Br  0.33818457  0.13733509  0.27023737    -0.00300
Br907      Br  0.33377224  0.97263729  0.32541209     0.00100
Br908      Br  0.38662015  0.05691429  0.18671422    -0.04300
Br909      Br  0.41707996  0.09620392  0.38705153     0.00200
Br910      Br  0.32383530  0.07892427  0.23950827    -0.03600
Br911      Br  0.34221591  0.03176710  0.36023874    -0.04500
Br912      Br  0.37346605  0.99937549  0.14789469    -0.00500
C913        C  0.35903366  0.86532077  0.06992381     0.00900
C914        C  0.34030593  0.86634313  0.03607507     0.03800
C915        C  0.34495440  0.85583469  0.99299852    -0.12300
C916        C  0.36816756  0.84400110  0.98423077     0.23100
C917        C  0.38585593  0.84082778  0.01942387    -0.12900
C918        C  0.38138618  0.85168950  0.06232363     0.04500
C919        C  0.37572006  0.83937336  0.93669873     0.26900
C920        C  0.36830210  0.81724323  0.91357060    -0.13600
C921        C  0.37332350  0.81470362  0.86679437     0.05000
C922        C  0.38570750  0.83426797  0.84366182    -0.09500
C923        C  0.39420374  0.85576737  0.86724797     0.05800
C924        C  0.38922959  0.85834937  0.91380177    -0.13900
Br925      Br  0.41696283  0.82331875  0.00739993    -0.06000
Br926      Br  0.30840242  0.88224110  0.04887510    -0.00300
Br927      Br  0.36325317  0.78471399  0.83409164     0.00100
Br928      Br  0.40009535  0.88836236  0.94594040    -0.04300
Br929      Br  0.40686060  0.84982919  0.10904606     0.00200
Br930      Br  0.32033188  0.85913351  0.94503143    -0.03600
Br931      Br  0.35089381  0.79090351  0.94578137    -0.04500
Br932      Br  0.41175443  0.88215140  0.83529463    -0.00500
C933        C  0.32753359  0.89647284  0.34320317     0.00900
C934        C  0.30641514  0.89253977  0.37120394     0.03800
C935        C  0.30976554  0.88846844  0.41823172    -0.12300
C936        C  0.33429271  0.88717370  0.43650824     0.23100
C937        C  0.35532043  0.89113910  0.40828224    -0.12900
C938        C  0.35185534  0.89684379  0.36224633     0.04500
C939        C  0.33870769  0.88256643  0.48549224     0.26900
C940        C  0.34643618  0.90281592  0.51345651    -0.13600
C941        C  0.35754464  0.89802081  0.55592297     0.05000
C942        C  0.35991113  0.87304713  0.57124348    -0.09500
C943        C  0.35016291  0.85294561  0.54514871     0.05800
C944        C  0.33981644  0.85766386  0.50191675    -0.13900
Br945      Br  0.38906631  0.88836735  0.43260799    -0.06000
Br946      Br  0.27315847  0.89252998  0.34485315    -0.00300
Br947      Br  0.37070975  0.92553047  0.59201134     0.00100
Br948      Br  0.32869044  0.83000186  0.46400271    -0.04300
Br949      Br  0.38044750  0.90682915  0.32633887     0.00200
Br950      Br  0.28103041  0.88483828  0.45761263    -0.03600
Br951      Br  0.34325452  0.93698724  0.49190474    -0.04500
Br952      Br  0.35232650  0.81891378  0.56771937    -0.00500
C953        C  0.41900581  0.88899743  0.22757011     0.00900
C954        C  0.42636160  0.86431116  0.24019854     0.03800
C955        C  0.45106861  0.85967051  0.25527313    -0.12300
C956        C  0.46871131  0.87944595  0.25776321     0.23100
C957        C  0.46163436  0.90399783  0.24527529    -0.12900
C958        C  0.43692047  0.90883915  0.23015878     0.04500
C959        C  0.49451770  0.87433066  0.27485801     0.26900
C960        C  0.49892324  0.87304742  0.32209816    -0.13600
C961        C  0.52282435  0.86625115  0.33846952     0.05000
C962        C  0.54237942  0.86054854  0.30774425    -0.09500
C963        C  0.53827812  0.86272665  0.26056509     0.05800
C964        C  0.51435491  0.86963542  0.24409719    -0.13900
Br965      Br  0.48589988  0.93105677  0.25005278    -0.06000
Br966      Br  0.40334087  0.83614389  0.23535487    -0.00300
Br967      Br  0.52863730  0.86416915  0.40312130     0.00100
Br968      Br  0.50856977  0.87244959  0.17948587    -0.04300
Br969      Br  0.42780546  0.94310772  0.21564885     0.00200
Br970      Br  0.46097262  0.82607051  0.27295179    -0.03600
Br971      Br  0.47197885  0.88023276  0.36423735    -0.04500
Br972      Br  0.56558869  0.85688005  0.21878233    -0.00500
C973        C  0.97067986  0.72896993  0.92118325     0.00900
C974        C  0.96989504  0.75343208  0.94019995     0.03800
C975        C  0.98855310  0.76105769  0.97171191    -0.12300
C976        C  0.00743797  0.74395527  0.98507635     0.23100
C977        C  0.00876796  0.71997520  0.96444407    -0.12900
C978        C  0.99098076  0.71285087  0.93160701     0.04500
C979        C  0.02438572  0.74931057  0.02409544     0.26900
C980        C  0.05027018  0.75351132  0.01656754    -0.13600
C981        C  0.06767156  0.74907181  0.05182660     0.05000
C982        C  0.05914564  0.74036269  0.09434726    -0.09500
C983        C  0.03309664  0.73950377  0.10344600     0.05800
C984        C  0.01572330  0.74398278  0.06832737    -0.13900
Br985      Br  0.03412415  0.69601466  0.98323428    -0.06000
Br986      Br  0.94260104  0.77583080  0.92527882    -0.00300
Br987      Br  0.10320616  0.75400310  0.04178521     0.00100
Br988      Br  0.98013242  0.73956147  0.07937824    -0.04300
Br989      Br  0.99536597  0.68116420  0.89990285     0.00200
Br990      Br  0.98787878  0.79440837  0.99797591    -0.03600
Br991      Br  0.06187869  0.76237783  0.95656068    -0.04500
Br992      Br  0.02093386  0.72916379  0.16221181    -0.00500
C993        C  0.04209758  0.68302288  0.25065917     0.00900
C994        C  0.02668569  0.70065496  0.27399026     0.03800
C995        C  0.00265971  0.69339243  0.28959055    -0.12300
C996        C  0.99404553  0.66852487  0.28295147     0.23100
C997        C  0.01012785  0.65044960  0.26339768    -0.12900
C998        C  0.03407080  0.65758853  0.24743335     0.04500
C999        C  0.96765544  0.66164935  0.29449578     0.26900
C1000       C  0.96200827  0.65015025  0.33639907    -0.13600
C1001       C  0.93699217  0.64346836  0.34684333     0.05000
C1002       C  0.91744494  0.64831019  0.31540527    -0.09500
C1003       C  0.92319467  0.65968162  0.27333186     0.05800
C1004       C  0.94820684  0.66639259  0.26298324    -0.13900
Br1005     Br  0.99896337  0.61590703  0.25770770    -0.06000
Br1006     Br  0.03728024  0.73521676  0.28297169    -0.00300
Br1007     Br  0.92950320  0.62859328  0.40514327     0.00100
Br1008     Br  0.95603475  0.68199570  0.20540205    -0.04300
Br1009     Br  0.05603580  0.63195384  0.22292674     0.00200
Br1010     Br  0.98092244  0.71767435  0.31880996    -0.03600
Br1011     Br  0.98865927  0.64378457  0.37951561    -0.04500
Br1012     Br  0.89709266  0.66488692  0.22874321    -0.00500
C1013       C  0.16273863  0.77573293  0.17838116     0.00900
C1014       C  0.17916283  0.77752467  0.14086227     0.03800
C1015       C  0.19766843  0.79650827  0.13982579    -0.12300
C1016       C  0.20006443  0.81342112  0.17669046     0.23100
C1017       C  0.18242375  0.81286816  0.21245942    -0.12900
C1018       C  0.16350682  0.79425102  0.21295770     0.04500
C1019       C  0.22279712  0.82956478  0.18056420     0.26900
C1020       C  0.24457391  0.81973381  0.20119906    -0.13600
C1021       C  0.26622152  0.83480029  0.20598980     0.05000
C1022       C  0.26634927  0.85981558  0.18946583    -0.09500
C1023       C  0.24455140  0.86947524  0.16808899     0.05800
C1024       C  0.22277156  0.85440936  0.16403554    -0.13900
Br1025     Br  0.18550714  0.83643590  0.26241468    -0.06000
Br1026     Br  0.17660266  0.75366657  0.09130888    -0.00300
Br1027     Br  0.29503498  0.82119910  0.23766521     0.00100
Br1028     Br  0.19277953  0.86759991  0.13586549    -0.04300
Br1029     Br  0.13991439  0.79300722  0.26277421     0.00200
Br1030     Br  0.22077933  0.79854587  0.08935340    -0.03600
Br1031     Br  0.24449248  0.78549168  0.22344695    -0.04500
Br1032     Br  0.24467024  0.90280070  0.14209614    -0.00500
C1033       C  0.15776769  0.68195326  0.05116518     0.00900
C1034       C  0.18421120  0.67856365  0.04738756     0.03800
C1035       C  0.19517724  0.67352064  0.00459652    -0.12300
C1036       C  0.17992662  0.67141257  0.96562579     0.23100
C1037       C  0.15385404  0.67549378  0.96886062    -0.12900
C1038       C  0.14275294  0.68072125  0.01124665     0.04500
C1039       C  0.19072352  0.66413718  0.92093986     0.26900
C1040       C  0.19762679  0.68289419  0.88961740    -0.13600
C1041       C  0.20226231  0.67636564  0.84394825     0.05000
C1042       C  0.19970607  0.65108387  0.82942433    -0.09500
C1043       C  0.19505277  0.63203253  0.86171365     0.05800
C1044       C  0.19066529  0.63859513  0.90751640    -0.13900
Br1045     Br  0.13330850  0.67389369  0.91451795    -0.06000
Br1046     Br  0.20573808  0.67889343  0.10049055    -0.00300
Br1047     Br  0.21210853  0.70210468  0.80122396     0.00100
Br1048     Br  0.18305725  0.61283768  0.95163063    -0.04300
Br1049     Br  0.10691425  0.68668215  0.01296417     0.00200
Br1050     Br  0.23111062  0.66926575  0.99887173    -0.03600
Br1051     Br  0.19933554  0.71764246  0.90902139    -0.04500
Br1052     Br  0.19255946  0.59721704  0.84303425    -0.00500
C1053       C  0.17531455  0.67109708  0.55228359     0.00900
C1054       C  0.16937910  0.69702811  0.54877714     0.03800
C1055       C  0.16645793  0.70810281  0.50557150    -0.12300
C1056       C  0.16883554  0.69323816  0.46599062     0.23100
C1057       C  0.17626562  0.66787654  0.46935780    -0.12900
C1058       C  0.17996740  0.65697433  0.51226609     0.04500
C1059       C  0.16096733  0.70300880  0.42102352     0.26900
C1060       C  0.13534664  0.70181847  0.40886322    -0.13600
C1061       C  0.12806247  0.70548227  0.36338012     0.05000
C1062       C  0.14640849  0.71050414  0.32989957    -0.09500
C1063       C  0.17183069  0.71362812  0.34282876     0.05800
C1064       C  0.17908677  0.70993357  0.38842513    -0.13900
Br1065     Br  0.18043841  0.64770842  0.41486668    -0.06000
Br1066     Br  0.16359788  0.71726066  0.60258524    -0.00300
Br1067     Br  0.09317611  0.70133804  0.34701516     0.00100
Br1068     Br  0.21389889  0.71323702  0.40623353    -0.04300
Br1069     Br  0.19259836  0.62300153  0.51525742     0.00200
Br1070     Br  0.15839517  0.74340332  0.50013706    -0.03600
Br1071     Br  0.11037938  0.69358919  0.45428239    -0.04500
Br1072     Br  0.19671003  0.72297749  0.29811763    -0.00500
C1073       C  0.17334278  0.49327605  0.25658007     0.00900
C1074       C  0.19000004  0.50885406  0.23145989     0.03800
C1075       C  0.18195512  0.53269567  0.21598757    -0.12300
C1076       C  0.15738059  0.54120123  0.22531650     0.23100
C1077       C  0.14015332  0.52490805  0.24660942    -0.12900
C1078       C  0.14795555  0.50098709  0.26170281     0.04500
C1079       C  0.15024831  0.56791034  0.21626708     0.26900
C1080       C  0.15718495  0.58687985  0.24771918    -0.13600
C1081       C  0.15019256  0.61212660  0.24026563     0.05000
C1082       C  0.13638189  0.61872197  0.20100799    -0.09500
C1083       C  0.12894049  0.59961505  0.16997777     0.05800
C1084       C  0.13601786  0.57433339  0.17746505    -0.13900
Br1085     Br  0.10593935  0.53588664  0.25648790    -0.06000
Br1086     Br  0.22445539  0.49894321  0.22059221    -0.00300
Br1087     Br  0.15833675  0.63738718  0.28545517     0.00100
Br1088     Br  0.12668216  0.54844984  0.13419967    -0.04300
Br1089     Br  0.12321269  0.47870933  0.28798377     0.00200
Br1090     Br  0.20482643  0.55441603  0.18341564    -0.03600
Br1091     Br  0.17635012  0.57814928  0.30128181    -0.04500
Br1092     Br  0.10980170  0.60798398  0.11620529    -0.00500
C1093       C  0.34659681  0.05301500  0.80498218     0.00900
C1094       C  0.36226754  0.05131834  0.76643853     0.03800
C1095       C  0.36961410  0.02743099  0.74960639    -0.12300
C1096       C  0.36202930  0.00525507  0.77237332     0.23100
C1097       C  0.34705217  0.00714662  0.81177215    -0.12900
C1098       C  0.33896663  0.03085544  0.82727260     0.04500
C1099       C  0.36893216  0.97977439  0.75485686     0.26900
C1100       C  0.35045749  0.96466010  0.73349993    -0.13600
C1101       C  0.35565632  0.93934217  0.72243734     0.05000
C1102       C  0.37987034  0.92931565  0.73028072    -0.09500
C1103       C  0.39877357  0.94486561  0.74945010     0.05800
C1104       C  0.39307650  0.96974885  0.76304097    -0.13900
Br1105     Br  0.33789759  0.97714203  0.84506159    -0.06000
Br1106     Br  0.37437429  0.08173648  0.73812810    -0.00300
Br1107     Br  0.32957401  0.91868449  0.69551221     0.00100
Br1108     Br  0.41797720  0.98977761  0.79471403    -0.04300
Br1109     Br  0.31685502  0.03290358  0.87868368     0.00200
Br1110     Br  0.39002089  0.02503277  0.69556214    -0.03600
Br1111     Br  0.31784959  0.97877759  0.71978857    -0.04500
Br1112     Br  0.43233545  0.93200194  0.75842703    -0.00500
C1113       C  0.30029259  0.96588841  0.09519760     0.00900
C1114       C  0.31356966  0.97071887  0.05442980     0.03800
C1115       C  0.30981618  0.99335304  0.03096044    -0.12300
C1116       C  0.29112582  0.01036411  0.04527358     0.23100
C1117       C  0.27557554  0.00418417  0.08239265    -0.12900
C1118       C  0.28033217  0.98217360  0.10789196     0.04500
C1119       C  0.28930853  0.03525939  0.02248969     0.26900
C1120       C  0.30493254  0.05515634  0.03694996    -0.13600
C1121       C  0.30833698  0.07643919  0.00911253     0.05000
C1122       C  0.29662840  0.07749313  0.96545986    -0.09500
C1123       C  0.27743230  0.05950827  0.95542631     0.05800
C1124       C  0.27438688  0.03813445  0.98333578    -0.13900
Br1125     Br  0.24899243  0.02693787  0.09990510    -0.06000
Br1126     Br  0.33744643  0.94659607  0.03049766    -0.00300
Br1127     Br  0.32883450  0.10380349  0.03246551     0.00100
Br1128     Br  0.25110826  0.01165689  0.96660427    -0.04300
Br1129     Br  0.26066819  0.97601994  0.16190661     0.00200
Br1130     Br  0.33212409  0.00214838  0.98175986    -0.03600
Br1131     Br  0.32308877  0.05219351  0.09377950    -0.04500
Br1132     Br  0.25531845  0.06281787  0.90338099    -0.00500
C1133       C  0.37952357  0.20432497  0.21094579     0.00900
C1134       C  0.36841735  0.22460718  0.18759304     0.03800
C1135       C  0.36256068  0.22204599  0.14108540    -0.12300
C1136       C  0.36736076  0.19907701  0.11851781     0.23100
C1137       C  0.37886664  0.17899539  0.14179883    -0.12900
C1138       C  0.38544048  0.18182328  0.18772813     0.04500
C1139       C  0.36033714  0.19551011  0.07033074     0.26900
C1140       C  0.33592638  0.18707219  0.05908797    -0.13600
C1141       C  0.33081109  0.17831744  0.01482179     0.05000
C1142       C  0.35014297  0.17809550  0.98211868    -0.09500
C1143       C  0.37394876  0.18833311  0.99240795     0.05800
C1144       C  0.37904451  0.19711777  0.03657558    -0.13900
Br1145     Br  0.38503506  0.14733173  0.11096690    -0.06000
Br1146     Br  0.36008249  0.25529024  0.21975292    -0.00300
Br1147     Br  0.29807686  0.16461529  0.00007916     0.00100
Br1148     Br  0.41206630  0.20984300  0.05185601    -0.04300
Br1149     Br  0.40349874  0.15521819  0.21840409     0.00200
Br1150     Br  0.34755180  0.24961929  0.10834331    -0.03600
Br1151     Br  0.31010780  0.18594724  0.10517106    -0.04500
Br1152     Br  0.39973012  0.18964706  0.94624779    -0.00500
C1153       C  0.36065018  0.17366908  0.48550782     0.00900
C1154       C  0.37601563  0.16919148  0.52423086     0.03800
C1155       C  0.36500856  0.16405089  0.56669197    -0.12300
C1156       C  0.33868778  0.16408654  0.57153317     0.23100
C1157       C  0.32323686  0.16865264  0.53358716    -0.12900
C1158       C  0.33408245  0.17304769  0.49053036     0.04500
C1159       C  0.32773699  0.16045301  0.61747120     0.26900
C1160       C  0.32123359  0.13615227  0.63260554    -0.13600
C1161       C  0.31610291  0.13199866  0.67905589     0.05000
C1162       C  0.31774620  0.15225041  0.71049041    -0.09500
C1163       C  0.32163864  0.17700103  0.69410916     0.05800
C1164       C  0.32674733  0.18101432  0.64779082    -0.13900
Br1165     Br  0.28715239  0.16883298  0.54110715    -0.06000
Br1166     Br  0.41228616  0.17124105  0.52126705    -0.00300
Br1167     Br  0.30849903  0.09825017  0.69906210     0.00100
Br1168     Br  0.33374127  0.21456199  0.62585522    -0.04300
Br1169     Br  0.31203538  0.17653470  0.43867305     0.00200
Br1170     Br  0.38601338  0.15710362  0.61905575    -0.03600
Br1171     Br  0.32075201  0.10842734  0.58981841    -0.04500
Br1172     Br  0.31969792  0.20572196  0.73469231    -0.00500
C1173       C  0.41198888  0.15387953  0.83262852     0.00900
C1174       C  0.43219632  0.14381935  0.85822650     0.03800
C1175       C  0.45724156  0.14978223  0.84674927    -0.12300
C1176       C  0.46231905  0.16667851  0.81108547     0.23100
C1177       C  0.44226594  0.17793059  0.78732913    -0.12900
C1178       C  0.41724136  0.17103340  0.79705424     0.04500
C1179       C  0.48866766  0.17084557  0.79579416     0.26900
C1180       C  0.50483540  0.18729935  0.81976762    -0.13600
C1181       C  0.52995658  0.19048914  0.80546288     0.05000
C1182       C  0.53866141  0.17832856  0.76544570    -0.09500
C1183       C  0.52214130  0.16214995  0.74110320     0.05800
C1184       C  0.49750198  0.15801639  0.75691943    -0.13900
Br1185     Br  0.44931496  0.20272159  0.74104799    -0.06000
Br1186     Br  0.42602427  0.12293041  0.91075012    -0.00300
Br1187     Br  0.55252773  0.21069576  0.84224183     0.00100
Br1188     Br  0.47541270  0.13499233  0.72478922    -0.04300
Br1189     Br  0.39060797  0.18391917  0.75894823     0.00200
Br1190     Br  0.48481092  0.13454582  0.87944822    -0.03600
Br1191     Br  0.49222980  0.20598986  0.87145854    -0.04500
Br1192     Br  0.53199179  0.14694848  0.68395069    -0.00500
C1193       C  0.91224362  0.39303490  0.69498064     0.00900
C1194       C  0.92938548  0.38736909  0.65986136     0.03800
C1195       C  0.95445887  0.38106235  0.67052876    -0.12300
C1196       C  0.96216414  0.37950853  0.71639662     0.23100
C1197       C  0.94481721  0.38463669  0.75151514    -0.12900
C1198       C  0.92003957  0.39180986  0.74078450     0.04500
C1199       C  0.98845949  0.37247232  0.72802088     0.26900
C1200       C  0.99504868  0.34692578  0.73285237    -0.13600
C1201       C  0.01931445  0.34032120  0.74801840     0.05000
C1202       C  0.03736107  0.35930937  0.75744440    -0.09500
C1203       C  0.03093367  0.38486544  0.75090075     0.05800
C1204       C  0.00649978  0.39140042  0.73662110    -0.13900
Br1205     Br  0.95493291  0.38123805  0.81436546    -0.06000
Br1206     Br  0.91822300  0.38761467  0.59732158    -0.00300
Br1207     Br  0.02664782  0.30533911  0.76006839     0.00100
Br1208     Br  0.99726974  0.42636904  0.73033243    -0.04300
Br1209     Br  0.89673059  0.39987516  0.78889027     0.00200
Br1210     Br  0.97830440  0.37436234  0.62257333    -0.03600
Br1211     Br  0.97027728  0.32106981  0.72060764    -0.04500
Br1212     Br  0.05557179  0.41107225  0.76130738    -0.00500
C1213       C  0.04908329  0.30928031  0.91027610     0.00900
C1214       C  0.02939716  0.32591251  0.92239677     0.03800
C1215       C  0.01207240  0.31930922  0.95641053    -0.12300
C1216       C  0.01366119  0.29566830  0.97780886     0.23100
C1217       C  0.03157976  0.27796148  0.96246792    -0.12900
C1218       C  0.04935696  0.28477872  0.92881653     0.04500
C1219       C  0.99888471  0.29153877  0.02026723     0.26900
C1220       C  0.01009670  0.29788559  0.06231186    -0.13600
C1221       C  0.99501399  0.30184589  0.10098690     0.05000
C1222       C  0.96863074  0.29916220  0.09821516    -0.09500
C1223       C  0.95763112  0.29045814  0.05730167     0.05800
C1224       C  0.97277482  0.28654829  0.01836758    -0.13900
Br1225     Br  0.03223537  0.24486847  0.98916033    -0.06000
Br1226     Br  0.02547505  0.35783928  0.89201832    -0.00300
Br1227     Br  0.01041477  0.31319294  0.15689497     0.00100
Br1228     Br  0.95761040  0.27684332  0.96123312    -0.04300
Br1229     Br  0.07469516  0.26106781  0.91004478     0.00200
Br1230     Br  0.98700036  0.34347429  0.97580817    -0.03600
Br1231     Br  0.04595206  0.30387930  0.06572752    -0.04500
Br1232     Br  0.92153916  0.28709834  0.05311641    -0.00500
C1233       C  0.15971210  0.26948287  0.83138680     0.00900
C1234       C  0.16083523  0.25911322  0.87547456     0.03800
C1235       C  0.17738143  0.23899555  0.88481261    -0.12300
C1236       C  0.19380327  0.23002022  0.85069658     0.23100
C1237       C  0.19254410  0.24030410  0.80654087    -0.12900
C1238       C  0.17525489  0.25961170  0.79673666     0.04500
C1239       C  0.21370074  0.21111897  0.86127671     0.26900
C1240       C  0.23649838  0.21911362  0.88116925    -0.13600
C1241       C  0.25721313  0.20262396  0.88311897     0.05000
C1242       C  0.25548315  0.17796308  0.86442975    -0.09500
C1243       C  0.23184425  0.16933749  0.84811509     0.05800
C1244       C  0.21106467  0.18588929  0.84679033    -0.13900
Br1245     Br  0.21541103  0.22865139  0.75989276    -0.06000
Br1246     Br  0.14157501  0.27411515  0.92407266    -0.00300
Br1247     Br  0.28776790  0.21430768  0.91206359     0.00100
Br1248     Br  0.17908901  0.17458332  0.82297233    -0.04300
Br1249     Br  0.17286923  0.27251764  0.73558517     0.00200
Br1250     Br  0.17815949  0.22416946  0.94459227    -0.03600
Br1251     Br  0.23969376  0.25325849  0.90377490    -0.04500
Br1252     Br  0.22791003  0.13566021  0.82390015    -0.00500
C1253       C  0.19371036  0.38856453  0.17983572     0.00900
C1254       C  0.18651497  0.40694044  0.14778618     0.03800
C1255       C  0.17976164  0.39966168  0.10338488    -0.12300
C1256       C  0.18141361  0.37417949  0.09009738     0.23100
C1257       C  0.18987968  0.35596630  0.12124539    -0.12900
C1258       C  0.19523439  0.36300251  0.16647334     0.04500
C1259       C  0.17260135  0.36657609  0.04422708     0.26900
C1260       C  0.14863056  0.35548699  0.03904992    -0.13600
C1261       C  0.13907636  0.35062223  0.99530823     0.05000
C1262       C  0.15265955  0.35843227  0.95669014    -0.09500
C1263       C  0.17694106  0.36892710  0.96180598     0.05800
C1264       C  0.18716438  0.37233601  0.00558030    -0.13900
Br1265     Br  0.19374227  0.32137300  0.10184216    -0.06000
Br1266     Br  0.18402820  0.44193074  0.16479637    -0.00300
Br1267     Br  0.10792418  0.33225512  0.98854474     0.00100
Br1268     Br  0.22076165  0.38570612  0.01294755    -0.04300
Br1269     Br  0.20422522  0.33745101  0.21013054     0.00200
Br1270     Br  0.16687947  0.42442916  0.06126531    -0.03600
Br1271     Br  0.12827824  0.34814048  0.09182231    -0.04500
Br1272     Br  0.19555287  0.38036140  0.90934577    -0.00500
C1273       C  0.14320392  0.33580915  0.67927363     0.00900
C1274       C  0.16887147  0.34034843  0.66904913     0.03800
C1275       C  0.17613764  0.34644084  0.62448408    -0.12300
C1276       C  0.15797535  0.34772502  0.58975323     0.23100
C1277       C  0.13276247  0.34124908  0.59887934    -0.12900
C1278       C  0.12528042  0.33548851  0.64364692     0.04500
C1279       C  0.16492303  0.35855595  0.54508851     0.26900
C1280       C  0.16628039  0.38489097  0.54046740    -0.13600
C1281       C  0.17320951  0.39559253  0.49866333     0.05000
C1282       C  0.17710781  0.37999269  0.45992514    -0.09500
C1283       C  0.17549830  0.35339231  0.46484917     0.05800
C1284       C  0.17027456  0.34282498  0.50773741    -0.13900
Br1285     Br  0.10831151  0.34169110  0.55018562    -0.06000
Br1286     Br  0.19445793  0.33858240  0.71580024    -0.00300
Br1287     Br  0.17822501  0.43169020  0.49639983     0.00100
Br1288     Br  0.17021571  0.30671623  0.51578531    -0.04300
Br1289     Br  0.09010025  0.32971677  0.65607365     0.00200
Br1290     Br  0.21084960  0.35438442  0.61107871    -0.03600
Br1291     Br  0.15817323  0.40637222  0.59175810    -0.04500
Br1292     Br  0.17826776  0.33084395  0.41320283    -0.00500
C1293       C  0.17034123  0.54983457  0.73886069     0.00900
C1294       C  0.18748892  0.52953092  0.73874436     0.03800
C1295       C  0.17984894  0.50555455  0.75390327    -0.12300
C1296       C  0.15482078  0.50144015  0.76799069     0.23100
C1297       C  0.13766939  0.52171259  0.76821931    -0.12900
C1298       C  0.14549095  0.54590811  0.75419875     0.04500
C1299       C  0.14656747  0.47555421  0.78100824     0.26900
C1300       C  0.14059023  0.45766504  0.74688884    -0.13600
C1301       C  0.13466855  0.43263937  0.75882598     0.05000
C1302       C  0.13455267  0.42538551  0.80489787    -0.09500
C1303       C  0.14008244  0.44330068  0.83908540     0.05800
C1304       C  0.14600573  0.46835650  0.82719932    -0.13900
Br1305     Br  0.10326507  0.51605723  0.78637358    -0.06000
Br1306     Br  0.22092243  0.53385527  0.71426482    -0.00300
Br1307     Br  0.12719744  0.40804075  0.71210383     0.00100
Br1308     Br  0.15367966  0.49281271  0.87403881    -0.04300
Br1309     Br  0.12231038  0.57382615  0.75664239     0.00200
Br1310     Br  0.20350582  0.47798167  0.75425216    -0.03600
Br1311     Br  0.14078789  0.46749896  0.68371204    -0.04500
Br1312     Br  0.13987149  0.43328782  0.90215189    -0.00500
loop_ 
_geom_bond_atom_site_label_1 
_geom_bond_atom_site_label_2 
_geom_bond_distance 
_geom_bond_site_symmetry_2 
_ccdc_geom_bond_type 
O1           C16   1.268       .  A
O1           Al9   1.928       .  S
C2           O12   1.271       .  A
C2            O3   1.258       .  A
C2         C1273   1.481       .  S
O3           Al5   1.870       .  S
O4            C6   1.259       .  A
O4           Al5   1.924       .  S
Al5          O13   1.915       .  S
Al5          O15   1.880       .  S
Al5          O14   1.787       .  S
C6           O19   1.255       .  A
C6         C1302   1.478       .  S
O7           C17   1.261       .  A
O7           Al9   1.904       .  S
O8           C21   1.265       .  A
O8          Al18   1.940       .  S
Al9          O22   1.884       .  S
Al9          O19   1.897       .  S
Al9          O14   1.778       .  S
O10          C17   1.262       .  A
O10         Al18   1.904       .  S
O11          C20   1.262       .  A
O11         Al18   1.916       .  S
O12         Al18   1.952       .  S
O13          C20   1.260       .  A
O14         Al18   1.790       .  S
O15          C16   1.259       .  A
C16        C1262   1.470       .  S
C17        C1202   1.482       .  S
C20        C1233   1.481       .  S
C21          O22   1.258       .  A
C21        C1213   1.487       .  S
O23          C38   1.262       .  A
O23         Al31   1.914       .  S
C24          O34   1.259       .  A
C24          O25   1.264       .  A
C24        C1142   1.461       .  S
O25         Al27   1.914       .  S
O26          C28   1.256       .  A
O26         Al27   1.891       .  S
Al27         O35   1.905       .  S
Al27         O37   1.905       .  S
Al27         O36   1.781       .  S
C28          O41   1.266       .  A
C28        C1122   1.506       .  S
O29          C39   1.261       .  A
O29         Al31   1.918       .  S
O30          C43   1.261       .  A
O30         Al40   1.880       .  S
Al31         O44   1.943       .  S
Al31         O41   1.924       .  S
Al31         O36   1.782       .  S
O32          C39   1.260       .  A
O32         Al40   1.915       .  S
O33          C42   1.260       .  A
O33         Al40   1.919       .  S
O34         Al40   1.885       .  S
O35          C42   1.260       .  A
O36         Al40   1.782       .  S
O37          C38   1.259       .  A
C38        C1093   1.479       .  S
C39        C1242   1.495       .  S
C42        C1173   1.487       .  S
C43          O44   1.269       .  A
C43        C1162   1.483       .  S
O45          C60   1.262       .  A
O45         Al53   1.920       .  S
C46          O56   1.262       .  A
C46          O47   1.259       .  A
C46        C1062   1.476       .  S
O47         Al49   1.889       .  S
O48          C50   1.264       .  A
O48         Al49   1.927       .  S
Al49         O57   1.906       .  S
Al49         O59   1.896       .  S
Al49         O58   1.782       .  S
C50          O63   1.260       .  A
C50        C1082   1.485       .  S
O51          C61   1.263       .  A
O51         Al53   1.920       .  S
O52          C65   1.262       .  A
O52         Al62   1.922       .  S
Al53         O66   1.893       .  S
Al53         O63   1.900       .  S
Al53         O58   1.784       .  S
O54          C61   1.259       .  A
O54         Al62   1.899       .  S
O55          C64   1.260       .  A
O55         Al62   1.903       .  S
O56         Al62   1.919       .  S
O57          C64   1.261       .  A
O58         Al62   1.791       .  S
O59          C60   1.258       .  A
C60        C1033   1.490       .  S
C61         C993   1.490       .  S
C64        C1013   1.474       .  S
C65          O66   1.260       .  A
C65         C982   1.475       .  S
O67          C82   1.263       .  A
O67         Al75   1.914       .  S
C68          O78   1.260       .  A
C68          O69   1.261       .  A
C68         C913   1.463       .  S
O69         Al71   1.886       .  S
O70          C72   1.260       .  A
O70         Al71   1.898       .  S
Al71         O79   1.920       .  S
Al71         O81   1.900       .  S
Al71         O80   1.781       .  S
C72          O85   1.263       .  A
C72        C1113   1.487       .  S
O73          C83   1.261       .  A
O73         Al75   1.918       .  S
O74          C87   1.261       .  A
O74         Al84   1.906       .  S
Al75         O88   1.892       .  S
Al75         O85   1.918       .  S
Al75         O80   1.790       .  S
O76          C83   1.257       .  A
O76         Al84   1.888       .  S
O77          C86   1.257       .  A
O77         Al84   1.889       .  S
O78         Al84   1.905       .  S
O79          C86   1.259       .  A
O80         Al84   1.783       .  S
O81          C82   1.264       .  A
C82         C902   1.474       .  S
C83        C1022   1.482       .  S
C86         C953   1.490       .  S
C87          O88   1.258       .  A
C87         C933   1.467       .  S
O89         C104   1.260       .  A
O89         Al97   1.909       .  S
C90         O100   1.262       .  A
C90          O91   1.268       .  A
C90         C842   1.469       .  S
O91         Al93   1.926       .  S
O92          C94   1.259       .  A
O92         Al93   1.886       .  S
Al93        O101   1.904       .  S
Al93        O103   1.898       .  S
Al93        O102   1.782       .  S
C94         O107   1.260       .  A
C94         C782   1.503       .  S
O95         C105   1.260       .  A
O95         Al97   1.922       .  S
O96         C109   1.264       .  A
O96        Al106   1.884       .  S
Al97        O110   1.924       .  S
Al97        O107   1.913       .  S
Al97        O102   1.795       .  S
O98         C105   1.257       .  A
O98        Al106   1.909       .  S
O99         C108   1.258       .  A
O99        Al106   1.923       .  S
O100       Al106   1.895       .  S
O101        C108   1.256       .  A
O102       Al106   1.793       .  S
O103        C104   1.259       .  A
C104        C793   1.491       .  S
C105        C813   1.501       .  S
C108        C882   1.496       .  S
C109        O110   1.267       .  A
C109        C862   1.479       .  S
O111        C126   1.258       .  A
O111       Al119   1.888       .  S
C112        O122   1.260       .  A
C112        O113   1.265       .  A
C112        C733   1.478       .  S
O113       Al115   1.917       .  S
O114        C116   1.257       .  A
O114       Al115   1.889       .  S
Al115       O123   1.901       .  S
Al115       O125   1.931       .  S
Al115       O124   1.775       .  S
C116        O129   1.263       .  A
C116        C762   1.486       .  S
O117        C127   1.262       .  A
O117       Al119   1.870       .  S
O118        C131   1.266       .  A
O118       Al128   1.926       .  S
Al119       O132   1.907       .  S
Al119       O129   1.926       .  S
Al119       O124   1.774       .  S
O120        C127   1.264       .  A
O120       Al128   1.953       .  S
O121        C130   1.269       .  A
O121       Al128   1.952       .  S
O122       Al128   1.889       .  S
O123        C130   1.260       .  A
O124       Al128   1.783       .  S
O125        C126   1.265       .  A
C126        C722   1.492       .  S
C127        C693   1.505       .  S
C130        C822   1.508       .  S
C131        O132   1.261       .  A
C131       C1222   1.480       .  S
O133        C148   1.265       .  A
O133       Al141   1.924       .  S
C134        O144   1.266       .  A
C134        O135   1.258       .  A
C134        C653   1.469       .  S
O135       Al137   1.873       .  S
O136        C138   1.258       .  A
O136       Al137   1.915       .  S
Al137       O145   1.905       .  S
Al137       O147   1.886       .  S
Al137       O146   1.790       .  S
C138        O151   1.254       .  A
C138        C682   1.473       .  S
O139        C149   1.258       .  A
O139       Al141   1.899       .  S
O140        C153   1.261       .  A
O140       Al150   1.916       .  S
Al141       O154   1.879       .  S
Al141       O151   1.888       .  S
Al141       O146   1.786       .  S
O142        C149   1.258       .  A
O142       Al150   1.890       .  S
O143        C152   1.259       .  A
O143       Al150   1.908       .  S
O144       Al150   1.927       .  S
O145        C152   1.258       .  A
O146       Al150   1.797       .  S
O147        C148   1.260       .  A
C148        C642   1.480       .  S
C149        C593   1.476       .  S
C152        C613   1.482       .  S
C153        O154   1.257       .  A
C153        C973   1.476       .  S
O155        C170   1.258       .  A
O155       Al163   1.906       .  S
C156        O166   1.259       .  A
C156        O157   1.265       .  A
C156        C542   1.468       .  S
O157       Al159   1.917       .  S
O158        C160   1.263       .  A
O158       Al159   1.896       .  S
Al159       O167   1.906       .  S
Al159       O169   1.880       .  S
Al159       O168   1.786       .  S
C160        O173   1.259       .  A
C160        C773   1.496       .  S
O161        C171   1.257       .  A
O161       Al163   1.907       .  S
O162        C175   1.262       .  A
O162       Al172   1.876       .  S
Al163       O176   1.909       .  S
Al163       O173   1.899       .  S
Al163       O168   1.801       .  S
O164        C171   1.253       .  A
O164       Al172   1.889       .  S
O165        C174   1.257       .  A
O165       Al172   1.917       .  S
O166       Al172   1.884       .  S
O167        C174   1.256       .  A
O168       Al172   1.794       .  S
O169        C170   1.253       .  A
C170        C513   1.490       .  S
C171        C622   1.495       .  S
C174        C573   1.497       .  S
C175        O176   1.264       .  A
C175        C553   1.465       .  S
O177        C192   1.268       .  A
O177       Al185   1.933       .  S
C178        O188   1.268       .  A
C178        O179   1.262       .  A
C178       C1133   1.463       .  S
O179       Al181   1.873       .  S
O180        C182   1.261       .  A
O180       Al181   1.931       .  S
Al181       O189   1.900       .  S
Al181       O191   1.909       .  S
Al181       O190   1.774       .  S
C182        O195   1.257       .  A
C182        C893   1.486       .  S
O183        C193   1.260       .  A
O183       Al185   1.914       .  S
O184        C197   1.271       .  A
O184       Al194   1.955       .  S
Al185       O198   1.880       .  S
Al185       O195   1.895       .  S
Al185       O190   1.766       .  S
O186        C193   1.261       .  A
O186       Al194   1.918       .  S
O187        C196   1.270       .  A
O187       Al194   1.951       .  S
O188       Al194   1.928       .  S
O189        C196   1.258       .  A
O190       Al194   1.782       .  S
O191        C192   1.266       .  A
C192       C1153   1.492       .  S
C193        C873   1.507       .  S
C196        C473   1.515       .  S
C197        O198   1.258       .  A
C197        C502   1.494       .  S
O199        C214   1.260       .  A
O199       Al207   1.910       .  S
C200        O210   1.261       .  A
C200        O201   1.264       .  A
C200       C1282   1.489       .  S
O201       Al203   1.920       .  S
O202        C204   1.260       .  A
O202       Al203   1.887       .  S
Al203       O211   1.893       .  S
Al203       O213   1.915       .  S
Al203       O212   1.782       .  S
C204        O217   1.267       .  A
C204        C453   1.480       .  S
O205        C215   1.264       .  A
O205       Al207   1.926       .  S
O206        C219   1.260       .  A
O206       Al216   1.881       .  S
Al207       O220   1.932       .  S
Al207       O217   1.940       .  S
Al207       O212   1.786       .  S
O208        C215   1.259       .  A
O208       Al216   1.913       .  S
O209        C218   1.261       .  A
O209       Al216   1.923       .  S
O210       Al216   1.900       .  S
O211        C218   1.257       .  A
O212       Al216   1.785       .  S
O213        C214   1.261       .  A
C214       C1073   1.497       .  S
C215        C482   1.487       .  S
C218        C702   1.470       .  S
C219        O220   1.268       .  A
C219       C1253   1.474       .  S
O221        C236   1.261       .  A
O221       Al229   1.908       .  S
C222        O232   1.261       .  A
C222        O223   1.263       .  A
C222        C742   1.482       .  S
O223       Al225   1.919       .  S
O224        C226   1.262       .  A
O224       Al225   1.895       .  S
Al225       O233   1.905       .  S
Al225       O235   1.914       .  S
Al225       O234   1.777       .  S
C226        O239   1.266       .  A
C226        C442   1.480       .  S
O227        C237   1.262       .  A
O227       Al229   1.908       .  S
O228        C241   1.258       .  A
O228       Al238   1.881       .  S
Al229       O242   1.932       .  S
Al229       O239   1.937       .  S
Al229       O234   1.788       .  S
O230        C237   1.261       .  A
O230       Al238   1.907       .  S
O231        C240   1.260       .  A
O231       Al238   1.915       .  S
O232       Al238   1.898       .  S
O233        C240   1.260       .  A
O234       Al238   1.777       .  S
O235        C236   1.262       .  A
C236        C673   1.490       .  S
C237        C413   1.474       .  S
C240       C1193   1.473       .  S
C241        O242   1.263       .  A
C241        C713   1.495       .  S
O243        C258   1.259       .  A
O243       Al251   1.888       .  S
C244        O254   1.260       .  A
C244        O245   1.262       .  A
C244        C833   1.467       .  S
O245       Al247   1.914       .  S
O246        C248   1.257       .  A
O246       Al247   1.889       .  S
Al247       O255   1.887       .  S
Al247       O257   1.914       .  S
Al247       O256   1.786       .  S
C248        O261   1.262       .  A
C248        C522   1.483       .  S
O249        C259   1.260       .  A
O249       Al251   1.903       .  S
O250        C263   1.265       .  A
O250       Al260   1.914       .  S
Al251       O264   1.917       .  S
Al251       O261   1.920       .  S
Al251       O256   1.779       .  S
O252        C259   1.262       .  A
O252       Al260   1.918       .  S
O253        C262   1.264       .  A
O253       Al260   1.929       .  S
O254       Al260   1.894       .  S
O255        C262   1.257       .  A
O256       Al260   1.790       .  S
O257        C258   1.260       .  A
C258        C853   1.465       .  S
C259       C1182   1.486       .  S
C262        C422   1.480       .  S
C263        O264   1.264       .  A
C263        C493   1.478       .  S
O265        C280   1.257       .  A
O265       Al273   1.878       .  S
C266        O276   1.259       .  A
C266        O267   1.259       .  A
C266        C533   1.464       .  S
O267       Al269   1.899       .  S
O268        C270   1.256       .  A
O268       Al269   1.891       .  S
Al269       O277   1.892       .  S
Al269       O279   1.906       .  S
Al269       O278   1.792       .  S
C270        O283   1.259       .  A
C270        C802   1.487       .  S
O271        C281   1.257       .  A
O271       Al273   1.886       .  S
O272        C285   1.265       .  A
O272       Al282   1.924       .  S
Al273       O286   1.904       .  S
Al273       O283   1.917       .  S
Al273       O278   1.786       .  S
O274        C281   1.264       .  A
O274       Al282   1.928       .  S
O275        C284   1.265       .  A
O275       Al282   1.937       .  S
O276       Al282   1.892       .  S
O277        C284   1.258       .  A
O278       Al282   1.798       .  S
O279        C280   1.259       .  A
C280        C562   1.458       .  S
C281        C962   1.474       .  S
C284        C373   1.489       .  S
C285        O286   1.261       .  A
C285        C402   1.488       .  S
O287        C302   1.260       .  A
O287       Al295   1.900       .  S
C288        O298   1.256       .  A
C288        O289   1.263       .  A
C288        C662   1.468       .  S
O289       Al291   1.915       .  S
O290        C292   1.256       .  A
O290       Al291   1.876       .  S
Al291       O299   1.891       .  S
Al291       O301   1.890       .  S
Al291       O300   1.791       .  S
C292        O305   1.260       .  A
C292        C433   1.473       .  S
O293        C303   1.258       .  A
O293       Al295   1.909       .  S
O294        C307   1.257       .  A
O294       Al304   1.871       .  S
Al295       O308   1.931       .  S
Al295       O305   1.916       .  S
Al295       O300   1.800       .  S
O296        C303   1.258       .  A
O296       Al304   1.908       .  S
O297        C306   1.259       .  A
O297       Al304   1.920       .  S
O298       Al304   1.876       .  S
O299        C306   1.255       .  A
O300       Al304   1.799       .  S
O301        C302   1.257       .  A
C302        C753   1.482       .  S
C303        C382   1.481       .  S
C306       C1002   1.482       .  S
C307        O308   1.266       .  A
C307        C633   1.471       .  S
O309        C324   1.262       .  A
O309       Al317   1.891       .  S
C310        O320   1.257       .  A
C310        O311   1.262       .  A
C310        C922   1.457       .  S
O311       Al313   1.906       .  S
O312        C314   1.258       .  A
O312       Al313   1.904       .  S
Al313       O321   1.897       .  S
Al313       O323   1.907       .  S
Al313       O322   1.789       .  S
C314        O327   1.257       .  A
C314       C1102   1.482       .  S
O315        C325   1.261       .  A
O315       Al317   1.903       .  S
O316        C329   1.262       .  A
O316       Al326   1.910       .  S
Al317       O330   1.920       .  S
Al317       O327   1.908       .  S
Al317       O322   1.784       .  S
O318        C325   1.264       .  A
O318       Al326   1.930       .  S
O319        C328   1.260       .  A
O319       Al326   1.917       .  S
O320       Al326   1.877       .  S
O321        C328   1.257       .  A
O322       Al326   1.792       .  S
O323        C324   1.262       .  A
C324        C942   1.465       .  S
C325        C582   1.489       .  S
C328        C353   1.488       .  S
C329        O330   1.264       .  A
C329        C393   1.489       .  S
O331        C346   1.261       .  A
O331       Al339   1.903       .  S
C332        O342   1.259       .  A
C332        O333   1.267       .  A
C332       C1053   1.481       .  S
O333       Al335   1.927       .  S
O334        C336   1.254       .  A
O334       Al335   1.870       .  S
Al335       O343   1.886       .  S
Al335       O345   1.905       .  S
Al335       O344   1.788       .  S
C336        O349   1.261       .  A
C336        C462   1.478       .  S
O337        C347   1.260       .  A
O337       Al339   1.917       .  S
O338        C351   1.262       .  A
O338       Al348   1.883       .  S
Al339       O352   1.932       .  S
Al339       O349   1.923       .  S
Al339       O344   1.799       .  S
O340        C347   1.256       .  A
O340       Al348   1.900       .  S
O341        C350   1.257       .  A
O341       Al348   1.918       .  S
O342       Al348   1.885       .  S
O343        C350   1.252       .  A
O344       Al348   1.793       .  S
O345        C346   1.260       .  A
C346       C1293   1.482       .  S
C347        C362   1.479       .  S
C350        C602   1.473       .  S
C351        O352   1.267       .  A
C351       C1042   1.475       .  S
C353        C354   1.414       .  A
C353        C358   1.416       .  A
C354        C355   1.412       .  A
C354       Br366   1.929       .  S
C355        C356   1.409       .  A
C355       Br370   1.928       .  S
C356        C359   1.491       .  S
C356        C357   1.409       .  A
C357        C358   1.409       .  A
C357       Br365   1.932       .  S
C358       Br369   1.932       .  S
C359        C360   1.409       .  A
C359        C364   1.411       .  A
C360        C361   1.409       .  A
C360       Br371   1.930       .  S
C361        C362   1.411       .  A
C361       Br367   1.928       .  S
C362        C363   1.410       .  A
C363        C364   1.411       .  A
C363       Br372   1.929       .  S
C364       Br368   1.928       .  S
C373        C374   1.416       .  A
C373        C378   1.413       .  A
C374        C375   1.407       .  A
C374       Br386   1.931       .  S
C375        C376   1.408       .  A
C375       Br390   1.934       .  S
C376        C379   1.493       .  S
C376        C377   1.411       .  A
C377        C378   1.415       .  A
C377       Br385   1.927       .  S
C378       Br389   1.928       .  S
C379        C380   1.411       .  A
C379        C384   1.410       .  A
C380        C381   1.411       .  A
C380       Br391   1.927       .  S
C381        C382   1.409       .  A
C381       Br387   1.928       .  S
C382        C383   1.411       .  A
C383        C384   1.410       .  A
C383       Br392   1.927       .  S
C384       Br388   1.929       .  S
C393        C394   1.417       .  A
C393        C398   1.413       .  A
C394        C395   1.414       .  A
C394       Br406   1.929       .  S
C395        C396   1.409       .  A
C395       Br410   1.928       .  S
C396        C399   1.495       .  S
C396        C397   1.410       .  A
C397        C398   1.406       .  A
C397       Br405   1.925       .  S
C398       Br409   1.933       .  S
C399        C400   1.411       .  A
C399        C404   1.410       .  A
C400        C401   1.408       .  A
C400       Br411   1.932       .  S
C401        C402   1.412       .  A
C401       Br407   1.930       .  S
C402        C403   1.415       .  A
C403        C404   1.414       .  A
C403       Br412   1.928       .  S
C404       Br408   1.928       .  S
C413        C414   1.409       .  A
C413        C418   1.410       .  A
C414        C415   1.407       .  A
C414       Br426   1.929       .  S
C415        C416   1.409       .  A
C415       Br430   1.929       .  S
C416        C419   1.486       .  S
C416        C417   1.410       .  A
C417        C418   1.409       .  A
C417       Br425   1.930       .  S
C418       Br429   1.929       .  S
C419        C420   1.409       .  A
C419        C424   1.408       .  A
C420        C421   1.410       .  A
C420       Br431   1.927       .  S
C421        C422   1.411       .  A
C421       Br427   1.929       .  S
C422        C423   1.415       .  A
C423        C424   1.406       .  A
C423       Br432   1.932       .  S
C424       Br428   1.933       .  S
C433        C434   1.411       .  A
C433        C438   1.409       .  A
C434        C435   1.401       .  A
C434       Br446   1.931       .  S
C435        C436   1.409       .  A
C435       Br450   1.936       .  S
C436        C439   1.484       .  S
C436        C437   1.412       .  A
C437        C438   1.412       .  A
C437       Br445   1.926       .  S
C438       Br449   1.928       .  S
C439        C440   1.411       .  A
C439        C444   1.407       .  A
C440        C441   1.409       .  A
C440       Br451   1.927       .  S
C441        C442   1.408       .  A
C441       Br447   1.926       .  S
C442        C443   1.412       .  A
C443        C444   1.405       .  A
C443       Br452   1.918       .  S
C444       Br448   1.934       .  S
C453        C454   1.412       .  A
C453        C458   1.410       .  A
C454        C455   1.407       .  A
C454       Br466   1.922       .  S
C455        C456   1.407       .  A
C455       Br470   1.933       .  S
C456        C459   1.484       .  S
C456        C457   1.408       .  A
C457        C458   1.409       .  A
C457       Br465   1.928       .  S
C458       Br469   1.923       .  S
C459        C460   1.410       .  A
C459        C464   1.408       .  A
C460        C461   1.413       .  A
C460       Br471   1.926       .  S
C461        C462   1.411       .  A
C461       Br467   1.927       .  S
C462        C463   1.413       .  A
C463        C464   1.400       .  A
C463       Br472   1.932       .  S
C464       Br468   1.936       .  S
C473        C474   1.427       .  A
C473        C478   1.423       .  A
C474        C475   1.408       .  A
C474       Br486   1.933       .  S
C475        C476   1.404       .  A
C475       Br490   1.936       .  S
C476        C479   1.502       .  S
C476        C477   1.411       .  A
C477        C478   1.422       .  A
C477       Br485   1.928       .  S
C478       Br489   1.929       .  S
C479        C480   1.413       .  A
C479        C484   1.412       .  A
C480        C481   1.416       .  A
C480       Br491   1.928       .  S
C481        C482   1.412       .  A
C481       Br487   1.929       .  S
C482        C483   1.409       .  A
C483        C484   1.412       .  A
C483       Br492   1.926       .  S
C484       Br488   1.929       .  S
C493        C494   1.407       .  A
C493        C498   1.411       .  A
C494        C495   1.408       .  A
C494       Br506   1.922       .  S
C495        C496   1.411       .  A
C495       Br510   1.930       .  S
C496        C499   1.489       .  S
C496        C497   1.410       .  A
C497        C498   1.410       .  A
C497       Br505   1.929       .  S
C498       Br509   1.928       .  S
C499        C500   1.410       .  A
C499        C504   1.406       .  A
C500        C501   1.416       .  A
C500       Br511   1.926       .  S
C501        C502   1.416       .  A
C501       Br507   1.927       .  S
C502        C503   1.421       .  A
C503        C504   1.403       .  A
C503       Br512   1.934       .  S
C504       Br508   1.938       .  S
C513        C514   1.416       .  A
C513        C518   1.421   1_565  A
C514        C515   1.411   1_565  A
C514       Br526   1.931       .  S
C515        C516   1.409       .  A
C515       Br530   1.930       .  S
C516        C519   1.486       .  S
C516        C517   1.405       .  A
C517        C518   1.407       .  A
C517       Br525   1.934       .  S
C518       Br529   1.934       .  S
C519        C520   1.407       .  A
C519        C524   1.409       .  A
C520        C521   1.407       .  A
C520       Br531   1.931       .  S
C521        C522   1.416       .  A
C521       Br527   1.932       .  S
C522        C523   1.413       .  A
C523        C524   1.408       .  A
C523       Br532   1.931       .  S
C524       Br528   1.930       .  S
C533        C534   1.408       .  A
C533        C538   1.407       .  A
C534        C535   1.408       .  A
C534       Br546   1.928       .  S
C535        C536   1.408       .  A
C535       Br550   1.927       .  S
C536        C539   1.474       .  S
C536        C537   1.408       .  A
C537        C538   1.399       .  A
C537       Br545   1.935       .  S
C538       Br549   1.927       .  S
C539        C540   1.409       .  A
C539        C544   1.406       .  A
C540        C541   1.406       .  A
C540       Br551   1.928       .  S
C541        C542   1.409   1_554  A
C541       Br547   1.930   1_554  S
C542        C543   1.410       .  A
C543        C544   1.401   1_556  A
C543       Br552   1.929       .  S
C544       Br548   1.931       .  S
C553        C554   1.408       .  A
C553        C558   1.411       .  A
C554        C555   1.399       .  A
C554       Br566   1.933       .  S
C555        C556   1.408       .  A
C555       Br570   1.933       .  S
C556        C559   1.471       .  S
C556        C557   1.407       .  A
C557        C558   1.405       .  A
C557       Br565   1.929       .  S
C558       Br569   1.930       .  S
C559        C560   1.410       .  A
C559        C564   1.406       .  A
C560        C561   1.404       .  A
C560       Br571   1.929       .  S
C561        C562   1.405       .  A
C561       Br567   1.930       .  S
C562        C563   1.408       .  A
C563        C564   1.400       .  A
C563       Br572   1.928       .  S
C564       Br568   1.931       .  S
C573        C574   1.422       .  A
C573        C578   1.422       .  A
C574        C575   1.408       .  A
C574       Br586   1.934       .  S
C575        C576   1.406       .  A
C575       Br590   1.934       .  S
C576        C579   1.488       .  S
C576        C577   1.406       .  A
C577        C578   1.411       .  A
C577       Br585   1.931       .  S
C578       Br589   1.934       .  S
C579        C580   1.407       .  A
C579        C584   1.407       .  A
C580        C581   1.408       .  A
C580       Br591   1.932       .  S
C581        C582   1.416       .  A
C581       Br587   1.931       .  S
C582        C583   1.418       .  A
C583        C584   1.410       .  A
C583       Br592   1.930       .  S
C584       Br588   1.931       .  S
C593        C594   1.412   1_655  A
C593        C598   1.410       .  A
C594        C595   1.406       .  A
C594       Br606   1.930   1_455  S
C595        C596   1.408       .  A
C595       Br610   1.930       .  S
C596        C599   1.485       .  S
C596        C597   1.410       .  A
C597        C598   1.409   1_455  A
C597       Br605   1.928       .  S
C598       Br609   1.931       .  S
C599        C600   1.409       .  A
C599        C604   1.412       .  A
C600        C601   1.408       .  A
C600       Br611   1.929       .  S
C601        C602   1.410       .  A
C601       Br607   1.929       .  S
C602        C603   1.406       .  A
C603        C604   1.407       .  A
C603       Br612   1.928       .  S
C604       Br608   1.931       .  S
C613        C614   1.413       .  A
C613        C618   1.413       .  A
C614        C615   1.407       .  A
C614       Br626   1.928       .  S
C615        C616   1.408       .  A
C615       Br630   1.930       .  S
C616        C619   1.488       .  S
C616        C617   1.409       .  A
C617        C618   1.410       .  A
C617       Br625   1.928       .  S
C618       Br629   1.930       .  S
C619        C620   1.406       .  A
C619        C624   1.407       .  A
C620        C621   1.407       .  A
C620       Br631   1.936       .  S
C621        C622   1.422       .  A
C621       Br627   1.936       .  S
C622        C623   1.419       .  A
C623        C624   1.413       .  A
C623       Br632   1.932       .  S
C624       Br628   1.929       .  S
C633        C634   1.409       .  A
C633        C638   1.409       .  A
C634        C635   1.404       .  A
C634       Br646   1.925       .  S
C635        C636   1.408       .  A
C635       Br650   1.932       .  S
C636        C639   1.482       .  S
C636        C637   1.409       .  A
C637        C638   1.408       .  A
C637       Br645   1.928       .  S
C638       Br649   1.930       .  S
C639        C640   1.408       .  A
C639        C644   1.406       .  A
C640        C641   1.405       .  A
C640       Br651   1.931       .  S
C641        C642   1.414   1_554  A
C641       Br647   1.931       .  S
C642        C643   1.415       .  A
C643        C644   1.407   1_556  A
C643       Br652   1.932       .  S
C644       Br648   1.930       .  S
C653        C654   1.410       .  A
C653        C658   1.409       .  A
C654        C655   1.406       .  A
C654       Br666   1.930       .  S
C655        C656   1.408       .  A
C655       Br670   1.929       .  S
C656        C659   1.476       .  S
C656        C657   1.408       .  A
C657        C658   1.401       .  A
C657       Br665   1.936       .  S
C658       Br669   1.923       .  S
C659        C660   1.408       .  A
C659        C664   1.409       .  A
C660        C661   1.401       .  A
C660       Br671   1.933       .  S
C661        C662   1.409       .  A
C661       Br667   1.925       .  S
C662        C663   1.409       .  A
C663        C664   1.405       .  A
C663       Br672   1.930       .  S
C664       Br668   1.930       .  S
C673        C674   1.418       .  A
C673        C678   1.420       .  A
C674        C675   1.407       .  A
C674       Br686   1.932       .  S
C675        C676   1.405       .  A
C675       Br690   1.932       .  S
C676        C679   1.482       .  S
C676        C677   1.406       .  A
C677        C678   1.409       .  A
C677       Br685   1.932       .  S
C678       Br689   1.932       .  S
C679        C680   1.408       .  A
C679        C684   1.410       .  A
C680        C681   1.406       .  A
C680       Br691   1.930       .  S
C681        C682   1.410       .  A
C681       Br687   1.930       .  S
C682        C683   1.409       .  A
C683        C684   1.407       .  A
C683       Br692   1.928       .  S
C684       Br688   1.930       .  S
C693        C694   1.426   1_655  A
C693        C698   1.425       .  A
C694        C695   1.412       .  A
C694       Br706   1.932   1_455  S
C695        C696   1.406       .  A
C695       Br710   1.933       .  S
C696        C699   1.487       .  S
C696        C697   1.404       .  A
C697        C698   1.408   1_455  A
C697       Br705   1.933       .  S
C698       Br709   1.940       .  S
C699        C700   1.410       .  A
C699        C704   1.412       .  A
C700        C701   1.408       .  A
C700       Br711   1.929       .  S
C701        C702   1.409       .  A
C701       Br707   1.930       .  S
C702        C703   1.406       .  A
C703        C704   1.407       .  A
C703       Br712   1.930       .  S
C704       Br708   1.930       .  S
C713        C714   1.423       .  A
C713        C718   1.422       .  A
C714        C715   1.408       .  A
C714       Br726   1.929       .  S
C715        C716   1.404       .  A
C715       Br730   1.934       .  S
C716        C719   1.479       .  S
C716        C717   1.403       .  A
C717        C718   1.405       .  A
C717       Br725   1.934       .  S
C718       Br729   1.935       .  S
C719        C720   1.404       .  A
C719        C724   1.403   1_556  A
C720        C721   1.408   1_556  A
C720       Br731   1.933       .  S
C721        C722   1.424       .  A
C721       Br727   1.936       .  S
C722        C723   1.421       .  A
C723        C724   1.405       .  A
C723       Br732   1.929       .  S
C724       Br728   1.934   1_554  S
C733        C734   1.414       .  A
C733        C738   1.413       .  A
C734        C735   1.406       .  A
C734       Br746   1.934       .  S
C735        C736   1.409       .  A
C735       Br750   1.933       .  S
C736        C739   1.480       .  S
C736        C737   1.406       .  A
C737        C738   1.406       .  A
C737       Br745   1.929       .  S
C738       Br749   1.931       .  S
C739        C740   1.406       .  A
C739        C744   1.406       .  A
C740        C741   1.408       .  A
C740       Br751   1.930       .  S
C741        C742   1.417       .  A
C741       Br747   1.931       .  S
C742        C743   1.415       .  A
C743        C744   1.405       .  A
C743       Br752   1.928       .  S
C744       Br748   1.932       .  S
C753        C754   1.416       .  A
C753        C758   1.413       .  A
C754        C755   1.408       .  A
C754       Br766   1.932       .  S
C755        C756   1.408       .  A
C755       Br770   1.931       .  S
C756        C759   1.485       .  S
C756        C757   1.407       .  A
C757        C758   1.407       .  A
C757       Br765   1.930       .  S
C758       Br769   1.931       .  S
C759        C760   1.408       .  A
C759        C764   1.406       .  A
C760        C761   1.409       .  A
C760       Br771   1.932       .  S
C761        C762   1.416       .  A
C761       Br767   1.929       .  S
C762        C763   1.416       .  A
C763        C764   1.407       .  A
C763       Br772   1.931       .  S
C764       Br768   1.931       .  S
C773        C774   1.415   1_556  A
C773        C778   1.425       .  A
C774        C775   1.407       .  A
C774       Br786   1.936       .  S
C775        C776   1.410   1_565  A
C775       Br790   1.924       .  S
C776        C779   1.493       .  S
C776        C777   1.406   1_554  A
C777        C778   1.411   1_545  A
C777       Br785   1.933       .  S
C778       Br789   1.934       .  S
C779        C780   1.408       .  A
C779        C784   1.406       .  A
C780        C781   1.406       .  A
C780       Br791   1.928   1_554  S
C781        C782   1.420       .  A
C781       Br787   1.936       .  S
C782        C783   1.427       .  A
C783        C784   1.414       .  A
C783       Br792   1.933       .  S
C784       Br788   1.932       .  S
C793        C794   1.419       .  A
C793        C798   1.416       .  A
C794        C795   1.408       .  A
C794       Br806   1.932       .  S
C795        C796   1.406   1_545  A
C795       Br810   1.932   1_545  S
C796        C799   1.490       .  S
C796        C797   1.409   1_565  A
C797        C798   1.412       .  A
C797       Br805   1.929       .  S
C798       Br809   1.928       .  S
C799        C800   1.408       .  A
C799        C804   1.408       .  A
C800        C801   1.409       .  A
C800       Br811   1.930       .  S
C801        C802   1.414       .  A
C801       Br807   1.930       .  S
C802        C803   1.416       .  A
C803        C804   1.410       .  A
C803       Br812   1.932       .  S
C804       Br808   1.930       .  S
C813        C814   1.417       .  A
C813        C818   1.418       .  A
C814        C815   1.416       .  A
C814       Br826   1.928       .  S
C815        C816   1.412       .  A
C815       Br830   1.930       .  S
C816        C819   1.504       .  S
C816        C817   1.413       .  A
C817        C818   1.412       .  A
C817       Br825   1.934       .  S
C818       Br829   1.933       .  S
C819        C820   1.412       .  A
C819        C824   1.408       .  A
C820        C821   1.417       .  A
C820       Br831   1.930       .  S
C821        C822   1.420       .  A
C821       Br827   1.931       .  S
C822        C823   1.425       .  A
C823        C824   1.410       .  A
C823       Br832   1.933       .  S
C824       Br828   1.935       .  S
C833        C834   1.407       .  A
C833        C838   1.407       .  A
C834        C835   1.408       .  A
C834       Br846   1.928       .  S
C835        C836   1.409       .  A
C835       Br850   1.927       .  S
C836        C839   1.480       .  S
C836        C837   1.409       .  A
C837        C838   1.403       .  A
C837       Br845   1.932       .  S
C838       Br849   1.929       .  S
C839        C840   1.409   1_556  A
C839        C844   1.408   1_556  A
C840        C841   1.406       .  A
C840       Br851   1.929   1_554  S
C841        C842   1.406       .  A
C841       Br847   1.922       .  S
C842        C843   1.408       .  A
C843        C844   1.405       .  A
C843       Br852   1.928       .  S
C844       Br848   1.929       .  S
C853        C854   1.409       .  A
C853        C858   1.405       .  A
C854        C855   1.406       .  A
C854       Br866   1.929       .  S
C855        C856   1.408       .  A
C855       Br870   1.929       .  S
C856        C859   1.479       .  S
C856        C857   1.410       .  A
C857        C858   1.404       .  A
C857       Br865   1.929       .  S
C858       Br869   1.929       .  S
C859        C860   1.407       .  A
C859        C864   1.406       .  A
C860        C861   1.408       .  A
C860       Br871   1.929       .  S
C861        C862   1.414       .  A
C861       Br867   1.928       .  S
C862        C863   1.413       .  A
C863        C864   1.402       .  A
C863       Br872   1.932       .  S
C864       Br868   1.932       .  S
C873        C874   1.423       .  A
C873        C878   1.424       .  A
C874        C875   1.414       .  A
C874       Br886   1.932       .  S
C875        C876   1.408       .  A
C875       Br890   1.932       .  S
C876        C879   1.492       .  S
C876        C877   1.404       .  A
C877        C878   1.408       .  A
C877       Br885   1.933       .  S
C878       Br889   1.928       .  S
C879        C880   1.408       .  A
C879        C884   1.408       .  A
C880        C881   1.412       .  A
C880       Br891   1.931       .  S
C881        C882   1.421       .  A
C881       Br887   1.933       .  S
C882        C883   1.419       .  A
C883        C884   1.409       .  A
C883       Br892   1.932       .  S
C884       Br888   1.934       .  S
C893        C894   1.419       .  A
C893        C898   1.416       .  A
C894        C895   1.408       .  A
C894       Br906   1.932       .  S
C895        C896   1.407       .  A
C895       Br910   1.932       .  S
C896        C899   1.481       .  S
C896        C897   1.405       .  A
C897        C898   1.404       .  A
C897       Br905   1.932       .  S
C898       Br909   1.931       .  S
C899        C900   1.409       .  A
C899        C904   1.408       .  A
C900        C901   1.405   1_545  A
C900       Br911   1.931       .  S
C901        C902   1.411       .  A
C901       Br907   1.930       .  S
C902        C903   1.413   1_565  A
C903        C904   1.406       .  A
C903       Br912   1.931   1_545  S
C904       Br908   1.931       .  S
C913        C914   1.407       .  A
C913        C918   1.409       .  A
C914        C915   1.402   1_554  A
C914       Br926   1.931       .  S
C915        C916   1.409       .  A
C915       Br930   1.930       .  S
C916        C919   1.472       .  S
C916        C917   1.407   1_556  A
C917        C918   1.403       .  A
C917       Br925   1.930       .  S
C918       Br929   1.929       .  S
C919        C920   1.408       .  A
C919        C924   1.409       .  A
C920        C921   1.405       .  A
C920       Br931   1.927       .  S
C921        C922   1.406       .  A
C921       Br927   1.928       .  S
C922        C923   1.405       .  A
C923        C924   1.399       .  A
C923       Br932   1.928       .  S
C924       Br928   1.933       .  S
C933        C934   1.408       .  A
C933        C938   1.407       .  A
C934        C935   1.410       .  A
C934       Br946   1.928       .  S
C935        C936   1.410       .  A
C935       Br950   1.926       .  S
C936        C939   1.479       .  S
C936        C937   1.408       .  A
C937        C938   1.399       .  A
C937       Br945   1.935       .  S
C938       Br949   1.925       .  S
C939        C940   1.409       .  A
C939        C944   1.410       .  A
C940        C941   1.403       .  A
C940       Br951   1.931       .  S
C941        C942   1.407       .  A
C941       Br947   1.929       .  S
C942        C943   1.407       .  A
C943        C944   1.406       .  A
C943       Br952   1.930       .  S
C944       Br948   1.929       .  S
C953        C954   1.418       .  A
C953        C958   1.419       .  A
C954        C955   1.407       .  A
C954       Br966   1.933       .  S
C955        C956   1.407       .  A
C955       Br970   1.933       .  S
C956        C959   1.485       .  S
C956        C957   1.407       .  A
C957        C958   1.410       .  A
C957       Br965   1.931       .  S
C958       Br969   1.932       .  S
C959        C960   1.408       .  A
C959        C964   1.411       .  A
C960        C961   1.406       .  A
C960       Br971   1.931       .  S
C961        C962   1.409       .  A
C961       Br967   1.927       .  S
C962        C963   1.407       .  A
C963        C964   1.409       .  A
C963       Br972   1.926       .  S
C964       Br968   1.928       .  S
C973        C974   1.411       .  A
C973        C978   1.412       .  A
C974        C975   1.412       .  A
C974       Br986   1.928       .  S
C975        C976   1.411   1_655  A
C975       Br990   1.927       .  S
C976        C979   1.482   1_556  S
C976        C977   1.408       .  A
C977        C978   1.399   1_455  A
C977       Br985   1.936       .  S
C978       Br989   1.932       .  S
C979        C980   1.410       .  A
C979        C984   1.408       .  A
C980        C981   1.408       .  A
C980       Br991   1.928   1_554  S
C981        C982   1.409       .  A
C981       Br987   1.928       .  S
C982        C983   1.410       .  A
C983        C984   1.404       .  A
C983       Br992   1.925       .  S
C984       Br988   1.933   1_455  S
C993        C994   1.419       .  A
C993        C998   1.417       .  A
C994        C995   1.410       .  A
C994      Br1006   1.933       .  S
C995        C996   1.408   1_455  A
C995      Br1010   1.931   1_455  S
C996        C999   1.488       .  S
C996        C997   1.407   1_655  A
C997        C998   1.408       .  A
C997      Br1005   1.931   1_455  S
C998      Br1009   1.931       .  S
C999       C1000   1.408       .  A
C999       C1004   1.410       .  A
C1000      C1001   1.409       .  A
C1000     Br1011   1.929       .  S
C1001      C1002   1.413       .  A
C1001     Br1007   1.930       .  S
C1002      C1003   1.411       .  A
C1003      C1004   1.409       .  A
C1003     Br1012   1.927       .  S
C1004     Br1008   1.932       .  S
C1013      C1014   1.410       .  A
C1013      C1018   1.410       .  A
C1014      C1015   1.406       .  A
C1014     Br1026   1.928       .  S
C1015      C1016   1.408       .  A
C1015     Br1030   1.929       .  S
C1016      C1019   1.483       .  S
C1016      C1017   1.409       .  A
C1017      C1018   1.407       .  A
C1017     Br1025   1.929       .  S
C1018     Br1029   1.929       .  S
C1019      C1020   1.408       .  A
C1019      C1024   1.407       .  A
C1020      C1021   1.405       .  A
C1020     Br1031   1.933       .  S
C1021      C1022   1.415       .  A
C1021     Br1027   1.933       .  S
C1022      C1023   1.415       .  A
C1023      C1024   1.409       .  A
C1023     Br1032   1.929       .  S
C1024     Br1028   1.929       .  S
C1033      C1034   1.421       .  A
C1033      C1038   1.418       .  A
C1034      C1035   1.410       .  A
C1034     Br1046   1.932       .  S
C1035      C1036   1.405   1_554  A
C1035     Br1050   1.930   1_554  S
C1036      C1039   1.483       .  S
C1036      C1037   1.406       .  A
C1037      C1038   1.405   1_556  A
C1037     Br1045   1.933       .  S
C1038     Br1049   1.931       .  S
C1039      C1040   1.407       .  A
C1039      C1044   1.409       .  A
C1040      C1041   1.406       .  A
C1040     Br1051   1.928       .  S
C1041      C1042   1.411       .  A
C1041     Br1047   1.931       .  S
C1042      C1043   1.411       .  A
C1043      C1044   1.408       .  A
C1043     Br1052   1.928       .  S
C1044     Br1048   1.930       .  S
C1053      C1054   1.416       .  A
C1053      C1058   1.413       .  A
C1054      C1055   1.409       .  A
C1054     Br1066   1.931       .  S
C1055      C1056   1.407       .  A
C1055     Br1070   1.929       .  S
C1056      C1059   1.481       .  S
C1056      C1057   1.407       .  A
C1057      C1058   1.403       .  A
C1057     Br1065   1.934       .  S
C1058     Br1069   1.927       .  S
C1059      C1060   1.408       .  A
C1059      C1064   1.408       .  A
C1060      C1061   1.405       .  A
C1060     Br1071   1.933       .  S
C1061      C1062   1.411       .  A
C1061     Br1067   1.926       .  S
C1062      C1063   1.412       .  A
C1063      C1064   1.408       .  A
C1063     Br1072   1.930       .  S
C1064     Br1068   1.929       .  S
C1073      C1074   1.419       .  A
C1073      C1078   1.418       .  A
C1074      C1075   1.413       .  A
C1074     Br1086   1.932       .  S
C1075      C1076   1.409       .  A
C1075     Br1090   1.930       .  S
C1076      C1079   1.492       .  S
C1076      C1077   1.407       .  A
C1077      C1078   1.409       .  A
C1077     Br1085   1.932       .  S
C1078     Br1089   1.930       .  S
C1079      C1080   1.410       .  A
C1079      C1084   1.410       .  A
C1080      C1081   1.409       .  A
C1080     Br1091   1.931       .  S
C1081      C1082   1.412       .  A
C1081     Br1087   1.929       .  S
C1082      C1083   1.415       .  A
C1083      C1084   1.412       .  A
C1083     Br1092   1.931       .  S
C1084     Br1088   1.929       .  S
C1093      C1094   1.409       .  A
C1093      C1098   1.407       .  A
C1094      C1095   1.414       .  A
C1094     Br1106   1.928       .  S
C1095      C1096   1.414       .  A
C1095     Br1110   1.927       .  S
C1096      C1099   1.491   1_545  S
C1096      C1097   1.408       .  A
C1097      C1098   1.404       .  A
C1097     Br1105   1.934   1_545  S
C1098     Br1109   1.917       .  S
C1099      C1100   1.410       .  A
C1099      C1104   1.410       .  A
C1100      C1101   1.408       .  A
C1100     Br1111   1.932       .  S
C1101      C1102   1.412       .  A
C1101     Br1107   1.931       .  S
C1102      C1103   1.413       .  A
C1103      C1104   1.411       .  A
C1103     Br1112   1.929       .  S
C1104     Br1108   1.930       .  S
C1113      C1114   1.415       .  A
C1113      C1118   1.418       .  A
C1114      C1115   1.402       .  A
C1114     Br1126   1.934       .  S
C1115      C1116   1.407   1_565  A
C1115     Br1130   1.928   1_564  S
C1116      C1119   1.487       .  S
C1116      C1117   1.408       .  A
C1117      C1118   1.413   1_545  A
C1117     Br1125   1.929       .  S
C1118     Br1129   1.929       .  S
C1119      C1120   1.405       .  A
C1119      C1124   1.405   1_554  A
C1120      C1121   1.409       .  A
C1120     Br1131   1.934       .  S
C1121      C1122   1.425   1_554  A
C1121     Br1127   1.935       .  S
C1122      C1123   1.424       .  A
C1123      C1124   1.411       .  A
C1123     Br1132   1.935       .  S
C1124     Br1128   1.930       .  S
C1133      C1134   1.409       .  A
C1133      C1138   1.408       .  A
C1134      C1135   1.406       .  A
C1134     Br1146   1.930       .  S
C1135      C1136   1.408       .  A
C1135     Br1150   1.928       .  S
C1136      C1139   1.474       .  S
C1136      C1137   1.409       .  A
C1137      C1138   1.400       .  A
C1137     Br1145   1.933       .  S
C1138     Br1149   1.934       .  S
C1139      C1140   1.409       .  A
C1139      C1144   1.407       .  A
C1140      C1141   1.404       .  A
C1140     Br1151   1.929       .  S
C1141      C1142   1.407   1_554  A
C1141     Br1147   1.931       .  S
C1142      C1143   1.407       .  A
C1143      C1144   1.402   1_556  A
C1143     Br1152   1.930       .  S
C1144     Br1148   1.930       .  S
C1153      C1154   1.420       .  A
C1153      C1158   1.420       .  A
C1154      C1155   1.406       .  A
C1154     Br1166   1.932       .  S
C1155      C1156   1.406       .  A
C1155     Br1170   1.936       .  S
C1156      C1159   1.483       .  S
C1156      C1157   1.405       .  A
C1157      C1158   1.410       .  A
C1157     Br1165   1.930       .  S
C1158     Br1169   1.930       .  S
C1159      C1160   1.408       .  A
C1159      C1164   1.406       .  A
C1160      C1161   1.410       .  A
C1160     Br1171   1.930       .  S
C1161      C1162   1.415       .  A
C1161     Br1167   1.929       .  S
C1162      C1163   1.415       .  A
C1163      C1164   1.404       .  A
C1163     Br1172   1.933       .  S
C1164     Br1168   1.931       .  S
C1173      C1174   1.417       .  A
C1173      C1178   1.416       .  A
C1174      C1175   1.409       .  A
C1174     Br1186   1.932       .  S
C1175      C1176   1.408       .  A
C1175     Br1190   1.931       .  S
C1176      C1179   1.487       .  S
C1176      C1177   1.408       .  A
C1177      C1178   1.408       .  A
C1177     Br1185   1.932       .  S
C1178     Br1189   1.931       .  S
C1179      C1180   1.408       .  A
C1179      C1184   1.408       .  A
C1180      C1181   1.410       .  A
C1180     Br1191   1.930       .  S
C1181      C1182   1.416       .  A
C1181     Br1187   1.932       .  S
C1182      C1183   1.416       .  A
C1183      C1184   1.407       .  A
C1183     Br1192   1.932       .  S
C1184     Br1188   1.933       .  S
C1193      C1194   1.409       .  A
C1193      C1198   1.409       .  A
C1194      C1195   1.409       .  A
C1194     Br1206   1.929       .  S
C1195      C1196   1.410       .  A
C1195     Br1210   1.928       .  S
C1196      C1199   1.486       .  S
C1196      C1197   1.410       .  A
C1197      C1198   1.407       .  A
C1197     Br1205   1.931       .  S
C1198     Br1209   1.927       .  S
C1199      C1200   1.408       .  A
C1199      C1204   1.408   1_655  A
C1200      C1201   1.409   1_655  A
C1200     Br1211   1.931       .  S
C1201      C1202   1.415       .  A
C1201     Br1207   1.931       .  S
C1202      C1203   1.413       .  A
C1203      C1204   1.408       .  A
C1203     Br1212   1.930       .  S
C1204     Br1208   1.929   1_455  S
C1213      C1214   1.415       .  A
C1213      C1218   1.412       .  A
C1214      C1215   1.404       .  A
C1214     Br1226   1.930       .  S
C1215      C1216   1.408       .  A
C1215     Br1230   1.935   1_455  S
C1216      C1219   1.491   1_456  S
C1216      C1217   1.412       .  A
C1217      C1218   1.416       .  A
C1217     Br1225   1.926       .  S
C1218     Br1229   1.924       .  S
C1219      C1220   1.409   1_655  A
C1219      C1224   1.412       .  A
C1220      C1221   1.406   1_455  A
C1220     Br1231   1.933       .  S
C1221      C1222   1.411       .  A
C1221     Br1227   1.926   1_655  S
C1222      C1223   1.410       .  A
C1223      C1224   1.414       .  A
C1223     Br1232   1.929       .  S
C1224     Br1228   1.927   1_554  S
C1233      C1234   1.410       .  A
C1233      C1238   1.411       .  A
C1234      C1235   1.412       .  A
C1234     Br1246   1.927       .  S
C1235      C1236   1.411       .  A
C1235     Br1250   1.928       .  S
C1236      C1239   1.492       .  S
C1236      C1237   1.411       .  A
C1237      C1238   1.408       .  A
C1237     Br1245   1.932       .  S
C1238     Br1249   1.929       .  S
C1239      C1240   1.407       .  A
C1239      C1244   1.409       .  A
C1240      C1241   1.409       .  A
C1240     Br1251   1.933       .  S
C1241      C1242   1.419       .  A
C1241     Br1247   1.931       .  S
C1242      C1243   1.418       .  A
C1243      C1244   1.413       .  A
C1243     Br1252   1.930       .  S
C1244     Br1248   1.929       .  S
C1253      C1254   1.411       .  A
C1253      C1258   1.412       .  A
C1254      C1255   1.404       .  A
C1254     Br1266   1.925       .  S
C1255      C1256   1.408       .  A
C1255     Br1270   1.934       .  S
C1256      C1259   1.479       .  S
C1256      C1257   1.408       .  A
C1257      C1258   1.406       .  A
C1257     Br1265   1.930       .  S
C1258     Br1269   1.931       .  S
C1259      C1260   1.409       .  A
C1259      C1264   1.409       .  A
C1260      C1261   1.403   1_554  A
C1260     Br1271   1.932       .  S
C1261      C1262   1.409       .  A
C1261     Br1267   1.928       .  S
C1262      C1263   1.411       .  A
C1263      C1264   1.405   1_556  A
C1263     Br1272   1.931       .  S
C1264     Br1268   1.931       .  S
C1273      C1274   1.417       .  A
C1273      C1278   1.414       .  A
C1274      C1275   1.404       .  A
C1274     Br1286   1.933       .  S
C1275      C1276   1.405       .  A
C1275     Br1290   1.932       .  S
C1276      C1279   1.481       .  S
C1276      C1277   1.408       .  A
C1277      C1278   1.409       .  A
C1277     Br1285   1.931       .  S
C1278     Br1289   1.929       .  S
C1279      C1280   1.406       .  A
C1279      C1284   1.405       .  A
C1280      C1281   1.404       .  A
C1280     Br1291   1.934       .  S
C1281      C1282   1.419       .  A
C1281     Br1287   1.934       .  S
C1282      C1283   1.422       .  A
C1283      C1284   1.409       .  A
C1283     Br1292   1.933       .  S
C1284     Br1288   1.931       .  S
C1293      C1294   1.412       .  A
C1293      C1298   1.411       .  A
C1294      C1295   1.409       .  A
C1294     Br1306   1.931       .  S
C1295      C1296   1.410       .  A
C1295     Br1310   1.931       .  S
C1296      C1299   1.492       .  S
C1296      C1297   1.411       .  A
C1297      C1298   1.412       .  A
C1297     Br1305   1.928       .  S
C1298     Br1309   1.929       .  S
C1299      C1300   1.412       .  A
C1299      C1304   1.411       .  A
C1300      C1301   1.410       .  A
C1300     Br1311   1.930       .  S
C1301      C1302   1.408       .  A
C1301     Br1307   1.929       .  S
C1302      C1303   1.409       .  A
C1303      C1304   1.411       .  A
C1303     Br1312   1.929       .  S
C1304     Br1308   1.928       .  S
