geometry optimzed in LAMMPS
_audit_creation_date              2020-11-30 
_audit_creation_method            'lammps2cif' 
_symmetry_space_group_name_H-M    'P1' 
_symmetry_Int_Tables_number       1 
_symmetry_cell_setting            triclinic 
loop_ 
_symmetry_equiv_pos_as_xyz 
  x,y,z 
_cell_length_a                    27.81517728704056 
_cell_length_b                    27.91830225097014 
_cell_length_c                    36.10831843032545 
_cell_angle_alpha                 89.77048149714759 
_cell_angle_beta                  90.20073215786877 
_cell_angle_gamma                 90.16172822970925 
loop_ 
_atom_site_label 
_atom_site_type_symbol 
_atom_site_fract_x 
_atom_site_fract_y 
_atom_site_fract_z 
_atom_site_charge 
O1          O  0.95004257  0.66929129  0.59392406    -0.86000
O2          O  0.96640188  0.76461780  0.59402788    -0.83040
C3          C  0.96246339  0.78010579  0.62692732     0.97460
O4          O  0.99069268  0.76572208  0.65226996    -0.83080
O5          O  0.07419131  0.71518583  0.68411906    -0.85720
C6          C  0.06382897  0.67268126  0.69390384     1.01990
O7          O  0.03525992  0.65014698  0.67373820    -0.78480
O8          O  0.99475712  0.60959848  0.61348129    -0.78670
C9          C  0.95361256  0.62788135  0.60738772     1.01940
O10         O  0.02620397  0.65427788  0.54029960    -0.85990
O11         O  0.04816792  0.75006033  0.54697692    -0.83060
C12         C  0.05762875  0.79101673  0.55963736     0.97480
O13         O  0.05200109  0.79931861  0.59386224    -0.83090
O14         O  0.12145206  0.74254894  0.61943049    -0.85690
C15         C  0.14565341  0.70623359  0.62717728     1.01960
O16         O  0.12631683  0.66595867  0.63474598    -0.78510
O17         O  0.08512831  0.62775425  0.57476002    -0.78660
C18         C  0.06467112  0.63051974  0.54392901     1.01920
Cr19       Cr  0.00048939  0.70855602  0.57161360     1.93740
Cr20       Cr  0.05701656  0.75140627  0.63609044     1.93210
Cr21       Cr  0.05859277  0.64241282  0.62321292     1.39100
O22         O  0.03854013  0.70033634  0.61022638    -1.23750
O23         O  0.15981828  0.45399170  0.90995023    -0.86000
O24         O  0.25856397  0.44857221  0.89872733    -0.83040
C25         C  0.28586810  0.45103572  0.87089087     0.97460
O26         O  0.27936076  0.48210367  0.84580135    -0.83080
O27         O  0.20815338  0.53739168  0.80652713    -0.85720
C28         C  0.17253720  0.56527163  0.80211794     1.01990
O29         O  0.15230351  0.58193447  0.82983959    -0.78480
O30         O  0.12432521  0.49277595  0.86293981    -0.78670
C31         C  0.13170438  0.45431896  0.88170960     1.01940
O32         O  0.18308875  0.53831769  0.96002098    -0.85990
O33         O  0.27246323  0.53139425  0.94182987    -0.83060
C34         C  0.30248381  0.55704034  0.92501265     0.97480
O35         O  0.30125464  0.56247543  0.89024950    -0.83090
O36         O  0.23255562  0.61553864  0.85440380    -0.85690
C37         C  0.21348658  0.63757949  0.88111592     1.01960
O38         O  0.17719121  0.61930788  0.89808883    -0.78510
O39         O  0.11912717  0.54118298  0.92837610    -0.78660
C40         C  0.14011126  0.55037279  0.95781712     1.01920
Cr41       Cr  0.21670615  0.49512285  0.92419235     1.93740
Cr42       Cr  0.25126807  0.54725006  0.85175892     1.93210
Cr43       Cr  0.14840585  0.55673479  0.88018145     1.39100
O44         O  0.20635292  0.53150145  0.88479743    -1.23750
O45         O  0.53640519  0.80136060  0.59366930    -0.86000
O46         O  0.52170955  0.70515062  0.59856734    -0.83040
C47         C  0.52283777  0.68833856  0.63151426     0.97460
O48         O  0.49296168  0.70158711  0.65581511    -0.83080
O49         O  0.40657949  0.74821719  0.68404467    -0.85720
C50         C  0.41828040  0.78880811  0.69657288     1.01990
O51         O  0.44836059  0.81233912  0.67854059    -0.78480
O52         O  0.49304669  0.85639775  0.62143490    -0.78670
C53         C  0.53339483  0.84028335  0.61100751     1.01940
O54         O  0.45653863  0.81120590  0.54095186    -0.85990
O55         O  0.44000382  0.71576349  0.54896460    -0.83060
C56         C  0.43141673  0.67472360  0.56178000     0.97480
O57         O  0.43712996  0.66680324  0.59588662    -0.83090
O58         O  0.36579824  0.72465326  0.61604072    -0.85690
C59         C  0.34088923  0.76068748  0.62313128     1.01960
O60         O  0.35993984  0.79981556  0.63425739    -0.78510
O61         O  0.40582396  0.84351956  0.57918357    -0.78660
C62         C  0.42033651  0.83755498  0.54693289     1.01920
Cr63       Cr  0.48608284  0.75937615  0.57354605     1.93740
Cr64       Cr  0.42821509  0.71487429  0.63669199     1.93210
Cr65       Cr  0.42871432  0.82390001  0.62727077     1.39100
O66         O  0.44839917  0.76679678  0.61242299    -1.23750
O67         O  0.32277150  0.01730708  0.90428931    -0.86000
O68         O  0.22843241  0.02284581  0.88214286    -0.83040
C69         C  0.19535765  0.01104053  0.85981096     0.97460
O70         O  0.19419950  0.96956755  0.84550338    -0.83080
O71         O  0.26901807  0.91468876  0.80902797    -0.85720
C72         C  0.30712173  0.88981774  0.80664168     1.01990
O73         O  0.33127350  0.88159945  0.83517457    -0.78480
O74         O  0.35506594  0.97507935  0.85892090    -0.78670
C75         C  0.34941921  0.01476541  0.87563541     1.01940
O76         O  0.29159356  0.94115129  0.95977265    -0.85990
O77         O  0.20102245  0.95490424  0.93520355    -0.83060
C78         C  0.17723914  0.91802990  0.92712363     0.97480
O79         O  0.18534250  0.89473826  0.89802933    -0.83090
O80         O  0.25472525  0.84350916  0.86594490    -0.85690
C81         C  0.27942178  0.82823356  0.89307672     1.01960
O82         O  0.31295829  0.85321979  0.90742426    -0.78510
O83         O  0.35769565  0.93971768  0.93070822    -0.78660
C84         C  0.33508749  0.92916056  0.95924969     1.01920
Cr85       Cr  0.26263216  0.98079928  0.91786886     1.93740
Cr86       Cr  0.22980982  0.90877161  0.85635130     1.93210
Cr87       Cr  0.33466438  0.91408487  0.88305993     1.39100
O88         O  0.27471243  0.93558427  0.88486820    -1.23750
O89         O  0.67138574  0.52443914  0.59358081    -0.86000
O90         O  0.76689362  0.51224248  0.59369943    -0.83040
C91         C  0.78357503  0.51451288  0.62648962     0.97460
O92         O  0.77147655  0.48377482  0.65078588    -0.83080
O93         O  0.72594136  0.39435412  0.67846140    -0.85720
C94         C  0.68354273  0.40235333  0.68961687     1.01990
O95         O  0.65904661  0.43111835  0.67114929    -0.78480
O96         O  0.61518587  0.47666603  0.61519444    -0.78670
C97         C  0.63211902  0.51861228  0.60986041     1.01940
O98         O  0.65879076  0.45164127  0.53706020    -0.85990
O99         O  0.75406745  0.43358752  0.54374447    -0.83060
C100        C  0.79543711  0.42306414  0.55522568     0.97480
O101        O  0.80614292  0.43009062  0.58889853    -0.83090
O102        O  0.75342337  0.35596817  0.61051071    -0.85690
C103        C  0.71724784  0.32951508  0.61251671     1.01960
O104        O  0.67711218  0.34531258  0.62459171    -0.78510
O105        O  0.63438939  0.39082751  0.57008623    -0.78660
C106        C  0.63897499  0.41096638  0.53939265     1.01920
Cr107      Cr  0.71207525  0.47764247  0.56977605     1.93740
Cr108      Cr  0.75969251  0.41854858  0.63121810     1.93210
Cr109      Cr  0.65007758  0.41307997  0.61952524     1.39100
O110        O  0.70667342  0.43687324  0.60696918    -1.23750
O111        O  0.46160393  0.31119238  0.90528632    -0.86000
O112        O  0.45116871  0.21887533  0.88046319    -0.83040
C113        C  0.46140848  0.18609518  0.85765756     0.97460
O114        O  0.50299876  0.18309427  0.84354171    -0.83080
O115        O  0.55929687  0.25486137  0.80599475    -0.85720
C116        C  0.58271472  0.29371653  0.80240953     1.01990
O117        O  0.59246518  0.31819383  0.83031406    -0.78480
O118        O  0.50003466  0.34400432  0.85792765    -0.78670
C119        C  0.46244727  0.33996735  0.87786190     1.01940
O120        O  0.53827248  0.27635846  0.95718311    -0.85990
O121        O  0.51882118  0.18689114  0.93207760    -0.83060
C122        C  0.55544900  0.16284647  0.92441980     0.97480
O123        O  0.57890860  0.17078394  0.89523423    -0.83090
O124        O  0.63216508  0.23897231  0.86178862    -0.85690
C125        C  0.64810321  0.26326721  0.88875354     1.01960
O126        O  0.62447297  0.29815369  0.90190849    -0.78510
O127        O  0.54111328  0.34318492  0.92844038    -0.78660
C128        C  0.55173858  0.31941864  0.95651967     1.01920
Cr129      Cr  0.49583182  0.24985419  0.91604389     1.93740
Cr130      Cr  0.56546327  0.21602503  0.85345810     1.93210
Cr131      Cr  0.56279262  0.32112219  0.87947919     1.39100
O132        O  0.54030137  0.26149868  0.88202250    -1.23750
O133        O  0.83505645  0.95659629  0.57767949    -0.86000
O134        O  0.74552996  0.94235448  0.60565979    -0.83040
C135        C  0.70955951  0.95008005  0.62582297     0.97460
O136        O  0.70527959  0.98953148  0.64262796    -0.83080
O137        O  0.78455448  0.03656308  0.68334713    -0.85720
C138        C  0.82282360  0.06173389  0.68678746     1.01990
O139        O  0.84326678  0.07811941  0.65854711    -0.78480
O140        O  0.87034089  0.99510507  0.62377791    -0.78670
C141        C  0.86324514  0.95683755  0.60564369     1.01940
O142        O  0.79348060  0.03518616  0.53080949    -0.85990
O143        O  0.70632612  0.01510881  0.55899129    -0.83060
C144        C  0.68595375  0.05320658  0.56899615     0.97480
O145        O  0.69680794  0.07341696  0.59910575    -0.83090
O146        O  0.76723894  0.11673985  0.63900790    -0.85690
C147        C  0.78061294  0.13793163  0.61010409     1.01960
O148        O  0.81354538  0.11956625  0.59021200    -0.78510
O149        O  0.86336467  0.04256068  0.55557751    -0.78660
C150        C  0.83634172  0.04886581  0.52840202     1.01920
Cr151      Cr  0.77156859  0.99015768  0.57087145     1.93740
Cr152      Cr  0.74174017  0.05137741  0.63900517     1.93210
Cr153      Cr  0.84334375  0.05724431  0.60690421     1.39100
O154        O  0.78506467  0.03148883  0.60635871    -1.23750
O155        O  0.02691790  0.14808809  0.90726629    -0.86000
O156        O  0.03704992  0.24569496  0.89236500    -0.83040
C157        C  0.02927663  0.27476015  0.86593955     0.97460
O158        O  0.99152242  0.27210112  0.84643172    -0.83080
O159        O  0.93193475  0.20109040  0.81188222    -0.85720
C160        C  0.90317138  0.16575312  0.80950754     1.01990
O161        O  0.88832149  0.14666832  0.83840871    -0.78480
O162        O  0.98136060  0.11631653  0.86261090    -0.78670
C163        C  0.02210523  0.12117156  0.87878207     1.01940
O164        O  0.94944738  0.17731528  0.96349678    -0.85990
O165        O  0.96447413  0.26704674  0.94229178    -0.83060
C166        C  0.93539241  0.29759093  0.92989936     0.97480
O167        O  0.91797347  0.29387005  0.89751118    -0.83090
O168        O  0.85975140  0.22590703  0.86599126    -0.85690
C169        C  0.84109971  0.20493106  0.89365934     1.01960
O170        O  0.86192765  0.16923477  0.90923565    -0.78510
O171        O  0.94540610  0.11386345  0.93244885    -0.78660
C172        C  0.93496735  0.13491335  0.96128774     1.01920
Cr173      Cr  0.99159336  0.20767656  0.92355536     1.93740
Cr174      Cr  0.92755295  0.24417378  0.85755395     1.93210
Cr175      Cr  0.92126778  0.14112691  0.88588251     1.39100
O176        O  0.94811422  0.19877479  0.88831855    -1.23750
O177        O  0.86534069  0.47899889  0.11372521    -0.86000
O178        O  0.82602428  0.43608276  0.17375532    -0.83040
C179        C  0.80207463  0.40823965  0.19364113     0.97460
O180        O  0.76011570  0.39685024  0.18266594    -0.83080
O181        O  0.70782374  0.47897879  0.15020819    -0.85720
C182        C  0.69375907  0.50690929  0.12463597     1.01990
O183        O  0.70956688  0.50289311  0.09185670    -0.78480
O184        O  0.80440743  0.52282728  0.09458886    -0.78670
C185        C  0.84572940  0.51961277  0.10873533     1.01940
O186        O  0.84868366  0.38957271  0.07362003    -0.85990
O187        O  0.81200807  0.34693187  0.13323088    -0.83060
C188        C  0.77197268  0.32706024  0.12588632     0.97480
O189        O  0.73554922  0.35023544  0.11698357    -0.83090
O190        O  0.67830806  0.41711273  0.09053078    -0.85690
C191        C  0.68894579  0.40930622  0.05690313     1.01960
O192        O  0.72963737  0.42214665  0.04503111    -0.78510
O193        O  0.82532867  0.45034719  0.04041241    -0.78660
C194        C  0.84944748  0.41224960  0.04370999     1.01920
Cr195      Cr  0.83408664  0.41459330  0.12252384     1.93740
Cr196      Cr  0.72461419  0.41357576  0.13397542     1.93210
Cr197      Cr  0.76795790  0.47174317  0.07068552     1.39100
O198        O  0.77603742  0.43380286  0.10932261    -1.23750
O199        O  0.98929240  0.36195781  0.37610470    -0.86000
O200        O  0.95329870  0.32089804  0.31480666    -0.83040
C201        C  0.92585288  0.29798629  0.29404029     0.97460
O202        O  0.91553212  0.25546344  0.30375169    -0.83080
O203        O  0.99893650  0.20790514  0.33720323    -0.85720
C204        C  0.02562260  0.19296702  0.36322654     1.01990
O205        O  0.02042923  0.20808148  0.39620878    -0.78480
O206        O  0.03494084  0.30386824  0.39734281    -0.78670
C207        C  0.03068844  0.34430067  0.38227521     1.01940
O208        O  0.89814474  0.34097668  0.41191033    -0.85990
O209        O  0.86025689  0.30223770  0.35077224    -0.83060
C210        C  0.84199358  0.26150121  0.35873761     0.97480
O211        O  0.86800906  0.22742196  0.36843188    -0.83090
O212        O  0.93704277  0.17226428  0.39441828    -0.85690
C213        C  0.92484507  0.18126812  0.42741182     1.01960
O214        O  0.93513942  0.22138039  0.44130122    -0.78510
O215        O  0.95593013  0.31713360  0.44853931    -0.78660
C216        C  0.91567853  0.33722434  0.44368374     1.01920
Cr217      Cr  0.92705693  0.32794746  0.36445389     1.93740
Cr218      Cr  0.93222531  0.21986648  0.35214148     1.93210
Cr219      Cr  0.98429793  0.26345720  0.41815641     1.39100
O220        O  0.94837354  0.27103759  0.37823892    -1.23750
O221        O  0.61474535  0.99099902  0.11136186    -0.86000
O222        O  0.65256376  0.02929768  0.17382008    -0.83040
C223        C  0.67567907  0.05632029  0.19493812     0.97460
O224        O  0.71874738  0.06662795  0.18593493    -0.83080
O225        O  0.77053329  0.98356987  0.15742736    -0.85720
C226        C  0.78682332  0.95552545  0.13311733     1.01990
O227        O  0.77131780  0.95693985  0.09995641    -0.78480
O228        O  0.67391540  0.94114006  0.10084614    -0.78670
C229        C  0.63129040  0.94870413  0.11108386     1.01940
O230        O  0.64321657  0.07858283  0.07346537    -0.85990
O231        O  0.67365475  0.11873672  0.13509151    -0.83060
C232        C  0.71325784  0.13669422  0.12464277     0.97480
O233        O  0.74942625  0.11151303  0.11965779    -0.83090
O234        O  0.80491077  0.04252546  0.09728804    -0.85690
C235        C  0.79659204  0.04891318  0.06304913     1.01960
O236        O  0.75671286  0.03552553  0.04956517    -0.78510
O237        O  0.65906510  0.01335223  0.04347147    -0.78660
C238        C  0.63984885  0.05451163  0.04459437     1.01920
Cr239      Cr  0.64960692  0.05241660  0.12278939     1.93740
Cr240      Cr  0.75702480  0.04863959  0.13904954     1.93210
Cr241      Cr  0.71453258  0.98920647  0.07590565     1.39100
O242        O  0.70680928  0.02942791  0.11288462    -1.23750
O243        O  0.50193952  0.10220561  0.38186325    -0.86000
O244        O  0.53578414  0.14307245  0.31904592    -0.83040
C245        C  0.55923285  0.16886882  0.29717923     0.97460
O246        O  0.56809687  0.21182023  0.30664484    -0.83080
O247        O  0.48446058  0.25721073  0.33959644    -0.85720
C248        C  0.45698349  0.27109667  0.36520142     1.01990
O249        O  0.46212964  0.25559905  0.39809906    -0.78480
O250        O  0.45174305  0.15908096  0.39743124    -0.78670
C251        C  0.45925496  0.11804873  0.38435351     1.01940
O252        O  0.59221302  0.13114731  0.41782194    -0.85990
O253        O  0.62636981  0.16789403  0.35424833    -0.83060
C254        C  0.64377144  0.20930079  0.36044372     0.97480
O255        O  0.61755222  0.24316609  0.37015295    -0.83090
O256        O  0.54552774  0.29476342  0.39698515    -0.85690
C257        C  0.55566992  0.28562543  0.43053498     1.01960
O258        O  0.54608836  0.24488104  0.44393805    -0.78510
O259        O  0.52969037  0.14810281  0.45122721    -0.78660
C260        C  0.57232485  0.13249856  0.44882048     1.01920
Cr261      Cr  0.56208227  0.13966669  0.36929027     1.93740
Cr262      Cr  0.55181335  0.24755332  0.35471332     1.93210
Cr263      Cr  0.49980179  0.20115842  0.42005297     1.39100
O264        O  0.53754582  0.19576011  0.38118941    -1.23750
O265        O  0.48750467  0.60921545  0.10718277    -0.86000
O266        O  0.44453051  0.64345615  0.16932133    -0.83040
C267        C  0.41813038  0.66696207  0.19053146     0.97460
O268        O  0.40742065  0.70958357  0.18125263    -0.83080
O269        O  0.48921286  0.76388380  0.15343504    -0.85720
C270        C  0.51808493  0.78054593  0.12963174     1.01990
O271        O  0.51657291  0.76660127  0.09628080    -0.78480
O272        O  0.53442750  0.67062990  0.09522746    -0.78670
C273        C  0.52928050  0.62777424  0.10548425     1.01940
O274        O  0.39900861  0.63283677  0.06718342    -0.85990
O275        O  0.35598316  0.66216840  0.12958454    -0.83060
C276        C  0.33623593  0.70238315  0.12345268     0.97480
O277        O  0.36016660  0.73908114  0.11619340    -0.83090
O278        O  0.42882990  0.79832831  0.09399888    -0.85690
C279        C  0.42412859  0.79134353  0.05947750     1.01960
O280        O  0.43828782  0.75242333  0.04554055    -0.78510
O281        O  0.46309497  0.65715442  0.03779874    -0.78660
C282        C  0.42218744  0.63735845  0.03768665     1.01920
Cr283      Cr  0.42366813  0.64093217  0.11744301     1.93740
Cr284      Cr  0.42402438  0.74866416  0.13479414     1.93210
Cr285      Cr  0.48528005  0.71058391  0.07142473     1.39100
O286        O  0.44469667  0.69970695  0.10808586    -1.23750
O287        O  0.37051374  0.48684675  0.37912087    -0.86000
O288        O  0.32946427  0.53120962  0.32055655    -0.83040
C289        C  0.30603499  0.55983494  0.30098775     0.97460
O290        O  0.26459636  0.57144677  0.31236075    -0.83080
O291        O  0.21449955  0.48664346  0.33997683    -0.85720
C292        C  0.20007688  0.45657253  0.36383557     1.01990
O293        O  0.21570171  0.45734448  0.39696879    -0.78480
O294        O  0.31129552  0.44071190  0.39800766    -0.78670
C295        C  0.35249437  0.44543099  0.38417457     1.01940
O296        O  0.35356060  0.57366513  0.42151134    -0.85990
O297        O  0.31450911  0.61922601  0.36362671    -0.83060
C298        C  0.27510365  0.63767991  0.37443731     0.97480
O299        O  0.23888411  0.61245790  0.38059777    -0.83090
O300        O  0.18094009  0.54223423  0.40119201    -0.85690
C301        C  0.18955296  0.54643436  0.43549248     1.01960
O302        O  0.23036905  0.53533712  0.44796145    -0.78510
O303        O  0.32619795  0.51335314  0.45409410    -0.78660
C304        C  0.35041990  0.55169674  0.45166686     1.01920
Cr305      Cr  0.33797979  0.55090714  0.37207867     1.93740
Cr306      Cr  0.22900012  0.55071810  0.35968659     1.93210
Cr307      Cr  0.27181891  0.48955149  0.42157307     1.39100
O308        O  0.28015720  0.52989741  0.38444754    -1.23750
O309        O  0.99717337  0.86067468  0.11415557    -0.86000
O310        O  0.03369073  0.81937479  0.17449319    -0.83040
C311        C  0.05922109  0.79453632  0.19530625     0.97460
O312        O  0.06640291  0.75116164  0.18622642    -0.83080
O313        O  0.98010828  0.70593775  0.15268156    -0.85720
C314        C  0.95217365  0.69319226  0.12661918     1.01990
O315        O  0.95868168  0.70840770  0.09388048    -0.78480
O316        O  0.94662949  0.80444219  0.09687970    -0.78670
C317        C  0.95456146  0.84414895  0.11214648     1.01940
O318        O  0.08603329  0.83331318  0.07607734    -0.85990
O319        O  0.12373358  0.79600177  0.13633817    -0.83060
C320        C  0.14034628  0.75524845  0.12751103     0.97480
O321        O  0.11323089  0.72035866  0.12181973    -0.83090
O322        O  0.04131249  0.67040393  0.09471296    -0.85690
C323        C  0.04959708  0.67979483  0.06085313     1.01960
O324        O  0.04046214  0.72087932  0.04777869    -0.78510
O325        O  0.02269736  0.81890751  0.04284738    -0.78660
C326        C  0.06450943  0.83648196  0.04592279     1.01920
Cr327      Cr  0.05816150  0.82389159  0.12433963     1.93740
Cr328      Cr  0.04791254  0.71614376  0.13777595     1.93210
Cr329      Cr  0.99481065  0.76384854  0.07297666     1.39100
O330        O  0.03335674  0.76824717  0.11182517    -1.23750
O331        O  0.11689901  0.98005930  0.37709881    -0.86000
O332        O  0.15427215  0.93355022  0.31777169    -0.83040
C333        C  0.17820487  0.90547357  0.29839802     0.97460
O334        O  0.22099324  0.89608337  0.30857920    -0.83080
O335        O  0.27262677  0.98108521  0.33650923    -0.85720
C336        C  0.28818866  0.00997655  0.36073633     1.01990
O337        O  0.27301045  0.00820280  0.39384170    -0.78480
O338        O  0.17789809  0.02537275  0.39373601    -0.78670
C339        C  0.13585521  0.02138365  0.38149088     1.01940
O340        O  0.13594032  0.89216981  0.41965805    -0.85990
O341        O  0.17284268  0.84726223  0.36183102    -0.83060
C342        C  0.21361765  0.82887117  0.36901147     0.97480
O343        O  0.24984379  0.85373957  0.37552567    -0.83090
O344        O  0.30677521  0.92370112  0.39774746    -0.85690
C345        C  0.29744131  0.91854812  0.43193381     1.01960
O346        O  0.25621605  0.92928210  0.44354039    -0.78510
O347        O  0.16146889  0.95404141  0.45060416    -0.78660
C348        C  0.13819821  0.91508997  0.44920437     1.01920
Cr349      Cr  0.14899013  0.91519832  0.36989592     1.93740
Cr350      Cr  0.25825905  0.91632789  0.35568976     1.93210
Cr351      Cr  0.21625290  0.97639303  0.41776099     1.39100
O352        O  0.20726607  0.93649833  0.38079728    -1.23750
C353        C  0.11880720  0.85915825  0.20923457    -0.26970
C354        C  0.09083941  0.82025841  0.22248986    -0.15040
C355        C  0.09322962  0.80919366  0.26054242     0.35590
C356        C  0.12287802  0.83699017  0.28385447    -0.26410
C357        C  0.15183337  0.87515680  0.27059820    -0.15650
C358        C  0.14964554  0.88601298  0.23241659     0.36680
N359        N  0.17678833  0.92469575  0.21632119    -0.89900
H360        H  0.11678819  0.86899933  0.18022499     0.17790
H361        H  0.12163641  0.82896672  0.31297721     0.17780
N362        N  0.06499612  0.77147145  0.27690431    -0.88930
H363        H  0.20041369  0.90989780  0.19707294     0.35160
H364        H  0.19810804  0.94191764  0.23606654     0.40260
H365        H  0.04397997  0.75383351  0.25720791     0.39880
H366        H  0.04110407  0.78726121  0.29548923     0.34760
C367        C  0.22958428  0.70396830  0.40061701    -0.26970
C368        C  0.26645959  0.68901355  0.37651856    -0.15040
C369        C  0.28354839  0.72007343  0.34893582     0.35590
C370        C  0.26081556  0.76416393  0.34417106    -0.26410
C371        C  0.22296175  0.77819603  0.36744398    -0.15650
C372        C  0.20734802  0.74829640  0.39609110     0.36680
N373        N  0.17054629  0.76386926  0.42116425    -0.89900
H374        H  0.21669296  0.67994715  0.42210141     0.17790
H375        H  0.27415637  0.78893713  0.32336362     0.17780
N376        N  0.32271938  0.70637194  0.32541028    -0.88930
H377        H  0.16382423  0.73759268  0.44122447     0.35160
H378        H  0.13878578  0.76777796  0.40588926     0.40260
H379        H  0.35345428  0.70362259  0.34202261     0.39880
H380        H  0.32978413  0.73309342  0.30578199     0.34760
C381        C  0.20592209  0.70786016  0.10151806    -0.26970
C382        C  0.19162820  0.74510717  0.12533865    -0.15040
C383        C  0.22479382  0.76555521  0.15004479     0.35590
C384        C  0.27137347  0.74725514  0.15116364    -0.26410
C385        C  0.28525730  0.70992934  0.12755947    -0.15650
C386        C  0.25259563  0.68984921  0.10254951     0.36680
N387        N  0.26755237  0.65315162  0.07729103    -0.89900
H388        H  0.18033186  0.69246598  0.08221374     0.17790
H389        H  0.29772244  0.76334781  0.16954538     0.17780
N390        N  0.21103335  0.80386509  0.17421286    -0.88930
H391        H  0.23917169  0.64335008  0.05981180     0.35160
H392        H  0.27619242  0.62279166  0.09296362     0.40260
H393        H  0.20446449  0.83391200  0.15760128     0.39880
H394        H  0.23944230  0.81317682  0.19183135     0.34760
C395        C  0.34367159  0.65509256  0.22882082    -0.26970
C396        C  0.39127857  0.64123722  0.22082309    -0.15040
C397        C  0.40863678  0.59859677  0.23755561     0.35590
C398        C  0.37933303  0.57230333  0.26189288    -0.26410
C399        C  0.33177646  0.58602864  0.27017267    -0.15650
C400        C  0.31369580  0.62802375  0.25283426     0.36680
N401        N  0.26491140  0.64291125  0.25891857    -0.89900
H402        H  0.32906848  0.68658827  0.21530126     0.17790
H403        H  0.39452681  0.54064609  0.27479812     0.17780
N404        N  0.45624197  0.58111914  0.23100423    -0.88930
H405        H  0.25668090  0.67284895  0.24262115     0.35160
H406        H  0.26196212  0.65405695  0.28636619     0.40260
H407        H  0.48084757  0.60863427  0.23634525     0.39880
H408        H  0.45913781  0.57053325  0.20339914     0.34760
C409        C  0.37249383  0.11375501  0.36776762    -0.26970
C410        C  0.41674271  0.08965910  0.37181559    -0.15040
C411        C  0.41853650  0.04011019  0.36394161     0.35590
C412        C  0.37562274  0.01561385  0.35521000    -0.26410
C413        C  0.33117203  0.03938634  0.35420196    -0.15650
C414        C  0.32991743  0.08931001  0.35940945     0.36680
N415        N  0.28594151  0.11612308  0.35735227    -0.89900
H416        H  0.37039630  0.15206044  0.37219455     0.17790
H417        H  0.37630950  0.97702325  0.35203004     0.17780
N418        N  0.46300775  0.01424273  0.36677928    -0.88930
H419        H  0.27861667  0.12899739  0.38388035     0.35160
H420        H  0.25703179  0.09448453  0.34941526     0.40260
H421        H  0.48498835  0.02580949  0.34506913     0.39880
H422        H  0.45727143  0.97762831  0.36257172     0.34760
C423        C  0.44841149  0.35698224  0.35150743    -0.26970
C424        C  0.42609397  0.31315610  0.36002804    -0.15040
C425        C  0.37894912  0.31278747  0.37362358     0.35590
C426        C  0.35559096  0.35638362  0.38004105    -0.26410
C427        C  0.37888374  0.40081576  0.37422110    -0.15650
C428        C  0.42575436  0.40092616  0.35904639     0.36680
N429        N  0.45101645  0.44515276  0.35260662    -0.89900
H430        H  0.48536017  0.35697283  0.34205067     0.17790
H431        H  0.31936259  0.35532668  0.39090833     0.17780
N432        N  0.35587112  0.26801624  0.38238947    -0.88930
H433        H  0.48416767  0.43874536  0.34001727     0.35160
H434        H  0.45881663  0.46005273  0.37846930     0.40260
H435        H  0.35190676  0.24897046  0.35768755     0.39880
H436        H  0.32124345  0.27378185  0.39259417     0.34760
C437        C  0.91655190  0.92210648  0.12780672    -0.26970
C438        C  0.91309796  0.87202164  0.12645434    -0.15040
C439        C  0.86896888  0.85003973  0.13737267     0.35590
C440        C  0.82795771  0.87823590  0.14199843    -0.26410
C441        C  0.83077313  0.92794963  0.13995599    -0.15650
C442        C  0.87598410  0.95026312  0.13534564     0.36680
N443        N  0.87993280  0.00155926  0.13605739    -0.90860
H444        H  0.95040471  0.93949004  0.12139073     0.17790
H445        H  0.79346164  0.86111609  0.14669769     0.17780
N446        N  0.86421523  0.79990221  0.14542193    -0.88930
H447        H  0.91542599  0.01239948  0.13142829     0.35160
H448        H  0.87105257  0.01277146  0.16275575     0.40260
H449        H  0.89710839  0.78219484  0.14635482     0.39880
H450        H  0.84213620  0.78488542  0.12510096     0.34760
C451        C  0.62372551  0.86384245  0.13165394    -0.26970
C452        C  0.60091514  0.90728392  0.12240848    -0.15040
C453        C  0.55012199  0.90954118  0.12357436     0.35590
C454        C  0.52375829  0.86755601  0.13083998    -0.26410
C455        C  0.54675697  0.82361916  0.13717129    -0.15650
C456        C  0.59731562  0.82214025  0.13899855     0.36680
N457        N  0.62295903  0.77897970  0.14772582    -0.89900
H458        H  0.66262562  0.86180786  0.13235735     0.17790
H459        H  0.48486141  0.86841554  0.12894655     0.17780
N460        N  0.52526902  0.95339824  0.11525403    -0.88930
H461        H  0.64211325  0.76901904  0.12413866     0.35160
H462        H  0.59934582  0.75112359  0.15435991     0.40260
H463        H  0.53149867  0.97683220  0.13727504     0.39880
H464        H  0.48810098  0.94773271  0.11444719     0.34760
C465        C  0.59815380  0.07492176  0.22709798    -0.26970
C466        C  0.64791309  0.08411541  0.22358769    -0.15040
C467        C  0.66687428  0.12468487  0.24210059     0.35590
C468        C  0.63605519  0.15440195  0.26312529    -0.26410
C469        C  0.58643191  0.14475140  0.26668843    -0.15650
C470        C  0.56736918  0.10472700  0.24751425     0.36680
N471        N  0.51685256  0.09333793  0.24766792    -0.89900
H472        H  0.58215351  0.04488187  0.21262836     0.17790
H473        H  0.65146174  0.18417546  0.27826341     0.17780
N474        N  0.71722576  0.13584160  0.23958700    -0.88930
H475        H  0.50507585  0.09322216  0.22013134     0.35160
H476        H  0.49687719  0.12014087  0.26043557     0.40260
H477        H  0.73602486  0.10822924  0.25281056     0.39880
H478        H  0.72520967  0.16720997  0.25412419     0.34760
C479        C  0.06329900  0.06421325  0.35665033    -0.26970
C480        C  0.10935434  0.06648765  0.37267729    -0.15040
C481        C  0.12991472  0.11241900  0.37988853     0.35590
C482        C  0.10342417  0.15387914  0.37224456    -0.26410
C483        C  0.05683651  0.15123710  0.35815764    -0.15650
C484        C  0.03669719  0.10613650  0.34953253     0.36680
N485        N  0.98800447  0.10292496  0.33626033    -0.89900
H486        H  0.04735482  0.02963903  0.35068913     0.17790
H487        H  0.11798440  0.18857134  0.37978815     0.17780
N488        N  0.17675932  0.11733331  0.39648206    -0.88930
H489        H  0.97782350  0.06713309  0.33282209     0.35160
H490        H  0.98693056  0.11870411  0.30997241     0.40260
H491        H  0.17398014  0.10616355  0.42406768     0.39880
H492        H  0.18747247  0.15325401  0.39729271     0.34760
C493        C  0.07121656  0.41940340  0.36093373    -0.26970
C494        C  0.07502663  0.37115658  0.37187562    -0.15040
C495        C  0.12142716  0.34953022  0.37203554     0.35590
C496        C  0.16210731  0.37729728  0.36478514    -0.26410
C497        C  0.15822721  0.42601704  0.35668441    -0.15650
C498        C  0.11237845  0.44705328  0.35334392     0.36680
N499        N  0.10806418  0.49734156  0.34528077    -0.89900
H500        H  0.03620781  0.43624655  0.35971535     0.17790
H501        H  0.19740349  0.36129443  0.36777730     0.17780
N502        N  0.12908025  0.29979377  0.37997453    -0.88930
H503        H  0.07197268  0.50771287  0.34520098     0.35160
H504        H  0.12077946  0.50292354  0.31839567     0.40260
H505        H  0.10860024  0.27922324  0.36160049     0.39880
H506        H  0.11915347  0.29250295  0.40730019     0.34760
C507        C  0.77784350  0.20081338  0.35861899    -0.26970
C508        C  0.79075426  0.24975990  0.35532543    -0.15040
C509        C  0.75502707  0.28416316  0.34903544     0.35590
C510        C  0.70707294  0.26918322  0.34879923    -0.26410
C511        C  0.69443699  0.22074246  0.35490275    -0.15650
C512        C  0.73019588  0.18592481  0.35817589     0.36680
N513        N  0.71827232  0.13603799  0.36240929    -0.89900
H514        H  0.80503107  0.17343120  0.36199567     0.17790
H515        H  0.67927210  0.29585033  0.34483425     0.17780
N516        N  0.76712319  0.33373492  0.34326477    -0.88930
H517        H  0.74916362  0.11559252  0.36706312     0.35160
H518        H  0.70392103  0.12436048  0.33720187     0.40260
H519        H  0.78122241  0.34694295  0.36806307     0.39880
H520        H  0.73625252  0.35381618  0.33765381     0.34760
C521        C  0.85335078  0.60743749  0.10241078    -0.26970
C522        C  0.87073845  0.56495288  0.11839195    -0.15040
C523        C  0.90986824  0.56748011  0.14341358     0.35590
C524        C  0.93268147  0.61196111  0.14956032    -0.26410
C525        C  0.91737356  0.65364405  0.13102661    -0.15650
C526        C  0.87598820  0.65129252  0.10808654     0.36680
N527        N  0.85657415  0.69220737  0.08896635    -0.89900
H528        H  0.82256925  0.60666326  0.08392657     0.17790
H529        H  0.96474291  0.61332912  0.16666836     0.17780
N530        N  0.92698623  0.52506004  0.16180724    -0.88930
H531        H  0.86158810  0.68702252  0.06057654     0.35160
H532        H  0.87445759  0.72361809  0.09599004     0.40260
H533        H  0.89973044  0.51320006  0.17949373     0.39880
H534        H  0.95658329  0.53305007  0.17863662     0.34760
C535        C  0.65982902  0.58709906  0.11612361    -0.26970
C536        C  0.65395095  0.54064659  0.12988993    -0.15040
C537        C  0.60744941  0.52375660  0.13797113     0.35590
C538        C  0.56738122  0.55306356  0.13085645    -0.26410
C539        C  0.57285372  0.59905796  0.11522132    -0.15650
C540        C  0.62017211  0.61663739  0.10885322     0.36680
N541        N  0.62815570  0.66359783  0.09361486    -0.89900
H542        H  0.69567243  0.59948035  0.10914292     0.17790
H543        H  0.53178302  0.53899002  0.13643020     0.17780
N544        N  0.60056477  0.47563728  0.15084613    -0.88930
H545        H  0.66464856  0.66938512  0.08829656     0.35160
H546        H  0.61887896  0.68802842  0.11412894     0.40260
H547        H  0.57881622  0.45771360  0.13167610     0.39880
H548        H  0.58207908  0.47699739  0.17597553     0.34760
C549        C  0.77603771  0.24848434  0.09936782    -0.26970
C550        C  0.76394256  0.27663284  0.12963689    -0.15040
C551        C  0.72897803  0.26107805  0.15544113     0.35590
C552        C  0.70849404  0.21590689  0.15141004    -0.26410
C553        C  0.72150718  0.18738235  0.12164573    -0.15650
C554        C  0.75400606  0.20417733  0.09451534     0.36680
N555        N  0.76481640  0.17549378  0.06258186    -0.89900
H556        H  0.80008396  0.26247529  0.07832726     0.17790
H557        H  0.68398641  0.20222084  0.17224090     0.17780
N558        N  0.71248127  0.29237552  0.18428506    -0.88930
H559        H  0.78964680  0.19290286  0.04547108     0.35160
H560        H  0.73310848  0.17177193  0.04721029     0.40260
H561        H  0.74015565  0.29598198  0.20361107     0.39880
H562        H  0.68373382  0.27682994  0.19859040     0.34760
C563        C  0.83558206  0.33028302  0.21699848    -0.26970
C564        C  0.82841326  0.37974259  0.22271203    -0.15040
C565        C  0.85515960  0.40202932  0.25105265     0.35590
C566        C  0.88765085  0.37470007  0.27273394    -0.26410
C567        C  0.89550873  0.32524892  0.26647650    -0.15650
C568        C  0.86879442  0.30316040  0.23779189     0.36680
N569        N  0.87607288  0.25415089  0.22731109    -0.89900
H570        H  0.81752193  0.31247287  0.19456377     0.17790
H571        H  0.90652667  0.39231745  0.29517951     0.17780
N572        N  0.84844726  0.45213778  0.25838045    -0.88930
H573        H  0.84757484  0.23397346  0.23800204     0.35160
H574        H  0.90820057  0.24056373  0.23793783     0.40260
H575        H  0.86147206  0.47138795  0.23565004     0.39880
H576        H  0.86916281  0.46274369  0.28114560     0.34760
C577        C  0.93434381  0.33033619  0.99345103    -0.26970
C578        C  0.92022813  0.33581609  0.95627620    -0.15040
C579        C  0.89057598  0.37518024  0.94688725     0.35590
C580        C  0.86855010  0.40193528  0.97553336    -0.26410
C581        C  0.87867172  0.39196376  0.01304767    -0.15650
C582        C  0.91489511  0.35825673  0.02143528     0.36680
N583        N  0.93156793  0.35124910  0.05869902    -0.89900
H584        H  0.95963060  0.30275432  0.00159377     0.17790
H585        H  0.84266765  0.42949033  0.96859869     0.17780
N586        N  0.88327969  0.38803090  0.90873898    -0.88930
H587        H  0.96864253  0.35752341  0.05930240     0.35160
H588        H  0.92553852  0.31547385  0.06608015     0.40260
H589        H  0.91661671  0.39824655  0.89794555     0.39880
H590        H  0.86087156  0.41793592  0.90665992     0.34760
C591        C  0.83131218  0.06093987  0.00041242    -0.26970
C592        C  0.83377255  0.07071454  0.03836961    -0.15040
C593        C  0.87061302  0.10168009  0.05145821     0.35590
C594        C  0.90347660  0.12237764  0.02610472    -0.26410
C595        C  0.90121379  0.11184885  0.98814997    -0.15650
C596        C  0.86465476  0.08024944  0.97536051     0.36680
N597        N  0.86026909  0.06879473  0.93666654    -0.89900
H598        H  0.80341083  0.03728432  0.99009714     0.17790
H599        H  0.93108731  0.14663448  0.03601628     0.17780
N600        N  0.87430983  0.11259595  0.09023165    -0.88930
H601        H  0.82845412  0.04991852  0.93143508     0.35160
H602        H  0.88823259  0.04538694  0.93016707     0.40260
H603        H  0.84379596  0.13208191  0.09754994     0.39880
H604        H  0.90383203  0.13491914  0.09529285     0.34760
C605        C  0.81309282  0.10699884  0.74545953    -0.26970
C606        C  0.84281977  0.08031860  0.72219049    -0.15040
C607        C  0.89349673  0.08543723  0.72596120     0.35590
C608        C  0.91310113  0.11745763  0.75221433    -0.26410
C609        C  0.88331610  0.14477587  0.77496255    -0.15650
C610        C  0.83271913  0.13888343  0.77177988     0.36680
N611        N  0.80140512  0.16500656  0.79600050    -0.89900
H612        H  0.77445967  0.10488319  0.74180522     0.17790
H613        H  0.95171848  0.11965410  0.75595240     0.17780
N614        N  0.92489430  0.05860882  0.70227802    -0.88930
H615        H  0.76541112  0.15659442  0.79059021     0.35160
H616        H  0.80570492  0.20145326  0.79008522     0.40260
H617        H  0.91982046  0.02229518  0.70831893     0.39880
H618        H  0.96089984  0.06644463  0.70814368     0.34760
C619        C  0.83132174  0.11966376  0.48785361    -0.26970
C620        C  0.85458754  0.07657839  0.49648187    -0.15040
C621        C  0.89965264  0.06663922  0.48000677     0.35590
C622        C  0.92082510  0.10076151  0.45645967    -0.26410
C623        C  0.89874977  0.14501700  0.44957689    -0.15650
C624        C  0.85264801  0.15401970  0.46471818     0.36680
N625        N  0.82662054  0.19761552  0.45785341    -0.89900
H626        H  0.79742511  0.12809547  0.50096486     0.17790
H627        H  0.95565844  0.09327678  0.44443356     0.17780
N628        N  0.92495223  0.02254214  0.48651322    -0.88930
H629        H  0.79430432  0.18844411  0.44476284     0.35160
H630        H  0.84477458  0.21987124  0.43939649     0.40260
H631        H  0.90459474  0.99838065  0.50209356     0.39880
H632        H  0.95593839  0.03056370  0.50177390     0.34760
C633        C  0.57704678  0.09545307  0.51287487    -0.26970
C634        C  0.60033837  0.11555279  0.48179262    -0.15040
C635        C  0.65144815  0.11853910  0.48231776     0.35590
C636        C  0.67731159  0.09963232  0.51201315    -0.26410
C637        C  0.65442695  0.07746831  0.54183677    -0.15650
C638        C  0.60379106  0.07616567  0.54295805     0.36680
N639        N  0.57996710  0.05398463  0.57382003    -0.89900
H640        H  0.53815575  0.09344968  0.51318631     0.17790
H641        H  0.71622234  0.10121025  0.51133047     0.17780
N642        N  0.67866843  0.14082747  0.45331048    -0.88930
H643        H  0.54267977  0.05554809  0.57029008     0.35160
H644        H  0.58808051  0.07416508  0.59737116     0.40260
H645        H  0.66556606  0.17541430  0.44868547     0.39880
H646        H  0.67560510  0.12041869  0.42926245     0.34760
C647        C  0.62124650  0.37175989  0.96977689    -0.26970
C648        C  0.58539058  0.34120274  0.98386594    -0.15040
C649        C  0.58335783  0.33302659  0.02233756     0.35590
C650        C  0.61711607  0.35600798  0.04581603    -0.26410
C651        C  0.65361863  0.38597534  0.03141936    -0.15650
C652        C  0.65589491  0.39311222  0.99266758     0.36680
N653        N  0.69284085  0.42255797  0.97642584    -0.89900
H654        H  0.62311248  0.37826402  0.94021973     0.17790
H655        H  0.61525850  0.35004292  0.07544145     0.17780
N656        N  0.54678819  0.30229983  0.03742788    -0.88930
H657        H  0.68638000  0.42787925  0.94816503     0.35160
H658        H  0.72502552  0.40338181  0.97804094     0.40260
H659        H  0.51353308  0.31831682  0.03207110     0.39880
H660        H  0.55023755  0.30002467  0.06622275     0.34760
C661        C  0.61858280  0.06074624  0.97644997    -0.26970
C662        C  0.61297636  0.07669458  0.01315109    -0.15040
C663        C  0.58378577  0.11749446  0.01975446     0.35590
C664        C  0.56516967  0.14327975  0.98997956    -0.26410
C665        C  0.57289097  0.12929605  0.95334343    -0.15650
C666        C  0.59831618  0.08662328  0.94647000     0.36680
N667        N  0.60321003  0.06931645  0.90942416    -0.89900
H668        H  0.63977136  0.02909605  0.97091988     0.17790
H669        H  0.54525347  0.17573554  0.99567243     0.17780
N670        N  0.57349936  0.13345586  0.05678755    -0.88930
H671        H  0.58718759  0.03543617  0.90821189     0.35160
H672        H  0.63980957  0.06502420  0.90395894     0.40260
H673        H  0.55232299  0.10711535  0.06943593     0.39880
H674        H  0.55309288  0.16486467  0.05660563     0.34760
C675        C  0.73267288  0.28519130  0.89730305    -0.26970
C676        C  0.69646642  0.25159678  0.90236377    -0.15040
C677        C  0.70870850  0.20433893  0.91291106     0.35590
C678        C  0.75703855  0.19010666  0.91427134    -0.26410
C679        C  0.79314514  0.22243021  0.90450516    -0.15650
C680        C  0.78075222  0.27102954  0.89802266     0.36680
N681        N  0.81683227  0.30617323  0.89067060    -0.89900
H682        H  0.72369986  0.32169905  0.88964092     0.17790
H683        H  0.76579501  0.15294143  0.91979558     0.17780
N684        N  0.67209400  0.17001436  0.92070568    -0.88930
H685        H  0.81184217  0.33345735  0.90994401     0.35160
H686        H  0.81048015  0.32054178  0.86431484     0.40260
H687        H  0.67785992  0.15692752  0.94752660     0.39880
H688        H  0.67630006  0.14164857  0.90222808     0.34760
C689        C  0.78144102  0.21839653  0.58111241    -0.26970
C690        C  0.75753230  0.18416497  0.60223431    -0.15040
C691        C  0.71308584  0.19617586  0.61926522     0.35590
C692        C  0.69759988  0.24364017  0.61956802    -0.26410
C693        C  0.72532545  0.27908202  0.60289087    -0.15650
C694        C  0.76556408  0.26576246  0.58106150     0.36680
N695        N  0.79151646  0.30052026  0.55976002    -0.89900
H696        H  0.81415245  0.20923905  0.56655470     0.17790
H697        H  0.66578253  0.25305460  0.63515602     0.17780
N698        N  0.68431603  0.16069764  0.63759880    -0.88930
H699        H  0.79130966  0.28935160  0.53215484     0.35160
H700        H  0.82720150  0.30088497  0.56897988     0.40260
H701        H  0.68036703  0.17073185  0.66529079     0.39880
H702        H  0.65025055  0.16053067  0.62524457     0.34760
C703        C  0.61060974  0.38394065  0.72788515    -0.26970
C704        C  0.65844077  0.37227347  0.71858506    -0.15040
C705        C  0.67757607  0.32900911  0.73309491     0.35590
C706        C  0.64953431  0.30039150  0.75742172    -0.26410
C707        C  0.60213404  0.31277400  0.76696359    -0.15650
C708        C  0.58258219  0.35512342  0.75150491     0.36680
N709        N  0.53454308  0.37060577  0.75978525    -0.89900
H710        H  0.59431943  0.41606718  0.71658969     0.17790
H711        H  0.66561767  0.26925815  0.77046440     0.17780
N712        N  0.72541757  0.31427514  0.72359824    -0.88930
H713        H  0.53711999  0.40196166  0.77541212     0.35160
H714        H  0.51613544  0.34534377  0.77578258     0.40260
H715        H  0.72508594  0.30490648  0.69559874     0.39880
H716        H  0.73484525  0.28319667  0.73812461     0.34760
C717        C  0.80839551  0.38042843  0.49711659    -0.26970
C718        C  0.82910730  0.40084991  0.52873612    -0.15040
C719        C  0.87944029  0.39784962  0.53400006     0.35590
C720        C  0.90786497  0.37543547  0.50664968    -0.26410
C721        C  0.88656617  0.35625580  0.47454936    -0.15650
C722        C  0.83593657  0.35746082  0.47063365     0.36680
N723        N  0.81223540  0.33494885  0.43972433    -0.89900
H724        H  0.76976145  0.38111194  0.49325035     0.17790
H725        H  0.94657923  0.37420254  0.50983629     0.17780
N726        N  0.90149329  0.41808666  0.56642535    -0.88930
H727        H  0.77501442  0.33995737  0.44066448     0.35160
H728        H  0.81786753  0.29813552  0.44208375     0.40260
H729        H  0.89641308  0.45516495  0.56530630     0.39880
H730        H  0.93863104  0.41243113  0.56611123     0.34760
C731        C  0.59165164  0.40158062  0.47991881    -0.26970
C732        C  0.62337681  0.38301121  0.50667246    -0.15040
C733        C  0.63624658  0.33410749  0.50519606     0.35590
C734        C  0.61408958  0.30393115  0.47954806    -0.26410
C735        C  0.58003727  0.32132932  0.45435511    -0.15650
C736        C  0.56982159  0.37098698  0.45346577     0.36680
N737        N  0.53620907  0.38974851  0.42684196    -0.89900
H738        H  0.58204922  0.43912735  0.48087216     0.17790
H739        H  0.62326478  0.26619962  0.47943322     0.17780
N740        N  0.67136668  0.31500962  0.53050591    -0.88930
H741        H  0.53279405  0.42681178  0.42986975     0.35160
H742        H  0.50249872  0.37490179  0.43264168     0.40260
H743        H  0.70412018  0.33182776  0.52473798     0.39880
H744        H  0.67653176  0.27838475  0.52609271     0.34760
C745        C  0.10774354  0.02250527  0.84721164    -0.26970
C746        C  0.15295504  0.04355315  0.85482362    -0.15040
C747        C  0.15401170  0.09270304  0.86466124     0.35590
C748        C  0.11081997  0.11758617  0.86983839    -0.26410
C749        C  0.06575324  0.09514118  0.86573496    -0.15650
C750        C  0.06427296  0.04763781  0.85254365     0.36680
N751        N  0.01889894  0.02387857  0.84713556    -0.89900
H752        H  0.10594293  0.98505779  0.83957505     0.17790
H753        H  0.11259401  0.15460531  0.87871920     0.17780
N754        N  0.19810315  0.11843533  0.87020389    -0.88930
H755        H  0.02412502  0.98817815  0.83952565     0.35160
H756        H  0.00182560  0.04041859  0.82466301     0.40260
H757        H  0.22011544  0.11333769  0.84714744     0.39880
H758        H  0.21541082  0.10559685  0.89391902     0.34760
C759        C  0.35454153  0.10378690  0.87222930    -0.26970
C760        C  0.37486983  0.05914592  0.86341757    -0.15040
C761        C  0.41978277  0.05824687  0.84536794     0.35590
C762        C  0.44484203  0.10153250  0.83936587    -0.26410
C763        C  0.42675224  0.14577061  0.85185103    -0.15650
C764        C  0.37972448  0.14697829  0.86652906     0.36680
N765        N  0.35845143  0.19173944  0.87712313    -0.89900
H766        H  0.31926565  0.10492371  0.88484173     0.17790
H767        H  0.48065639  0.09994517  0.82776575     0.17780
N768        N  0.44127393  0.01342053  0.83522736    -0.88930
H769        H  0.32400453  0.18631194  0.88789121     0.35160
H770        H  0.35426558  0.21232457  0.85308153     0.40260
H771        H  0.44940724  0.99493666  0.85969273     0.39880
H772        H  0.47395371  0.01911766  0.82165960     0.34760
C773        C  0.07201282  0.85947200  0.97853217    -0.26970
C774        C  0.09030761  0.86061296  0.01494207    -0.15040
C775        C  0.13557120  0.88296466  0.02144712     0.35590
C776        C  0.16155540  0.90127758  0.99178777    -0.26410
C777        C  0.14397525  0.89962883  0.95554758    -0.15650
C778        C  0.09815083  0.87910970  0.94868607     0.36680
N779        N  0.07639704  0.87883978  0.91254003    -0.89900
H780        H  0.03736699  0.84304676  0.97314673     0.17790
H781        H  0.19676331  0.91660925  0.99714020     0.17780
N782        N  0.15577345  0.88684312  0.05812106    -0.88930
H783        H  0.07459009  0.84326280  0.90371643     0.35160
H784        H  0.09689478  0.89781627  0.89327846     0.40260
H785        H  0.13458930  0.91103975  0.07283913     0.39880
H786        H  0.19042306  0.90145579  0.05752032     0.34760
C787        C  0.39950935  0.87165652  0.97646837    -0.26970
C788        C  0.35866594  0.89766183  0.98758375    -0.15040
C789        C  0.34045884  0.88986756  0.02361320     0.35590
C790        C  0.36317367  0.85607142  0.04725061    -0.26410
C791        C  0.40294993  0.82912884  0.03526100    -0.15650
C792        C  0.42118960  0.83749926  0.99955919     0.36680
N793        N  0.46213239  0.81152303  0.98658325    -0.89900
H794        H  0.41418455  0.87659606  0.94895153     0.17790
H795        H  0.34891759  0.84969591  0.07472522     0.17780
N796        N  0.29893890  0.91569737  0.03594736    -0.88930
H797        H  0.48896812  0.83624712  0.97965500     0.35160
H798        H  0.45213027  0.79333296  0.96248535     0.40260
H799        H  0.30829020  0.95195943  0.03709821     0.39880
H800        H  0.28980733  0.90539095  0.06289524     0.34760
C801        C  0.61415319  0.86460710  0.58998784    -0.26970
C802        C  0.57888774  0.86717537  0.61762261    -0.15040
C803        C  0.58947100  0.89312958  0.65042436     0.35590
C804        C  0.63345685  0.91785579  0.65340153    -0.26410
C805        C  0.66833416  0.91590166  0.62533058    -0.15650
C806        C  0.65859337  0.88801122  0.59344429     0.36680
N807        N  0.69257215  0.88554046  0.56355135    -0.89900
H808        H  0.60670774  0.84454601  0.56496436     0.17790
H809        H  0.64034098  0.93903187  0.67795504     0.17780
N810        N  0.55794798  0.89393851  0.68184054    -0.88930
H811        H  0.67822211  0.86673944  0.54107565     0.35160
H812        H  0.72190748  0.86550975  0.57296284     0.40260
H813        H  0.53081368  0.86827991  0.68003625     0.39880
H814        H  0.54196850  0.92774872  0.68282744     0.34760
C815        C  0.60171538  0.64923651  0.63018906    -0.26970
C816        C  0.55279672  0.64589941  0.63782873    -0.15040
C817        C  0.53089953  0.60032996  0.64084097     0.35590
C818        C  0.55779741  0.55900758  0.63287221    -0.26410
C819        C  0.60615580  0.56241474  0.62211810    -0.15650
C820        C  0.62879922  0.60844293  0.62283819     0.36680
N821        N  0.67897677  0.61567559  0.61571396    -0.89900
H822        H  0.61848657  0.68422056  0.62775749     0.17790
H823        H  0.54028650  0.52430748  0.63348593     0.17780
N824        N  0.48050443  0.59648229  0.64908102    -0.88930
H825        H  0.68643251  0.60758557  0.58811188     0.35160
H826        H  0.69906672  0.59391151  0.63356606     0.40260
H827        H  0.47558337  0.60874715  0.67611355     0.39880
H828        H  0.46946905  0.56065196  0.64886198     0.34760
C829        C  0.33230963  0.81492919  0.77700394    -0.26970
C830        C  0.32432366  0.86460013  0.77289041    -0.15040
C831        C  0.34721380  0.88863324  0.74328764     0.35590
C832        C  0.37827893  0.86293462  0.71981986    -0.26410
C833        C  0.38811961  0.81361891  0.72505270    -0.15650
C834        C  0.36440313  0.78946022  0.75437182     0.36680
N835        N  0.37350579  0.74004650  0.76345979    -0.89900
H836        H  0.31628070  0.79626137  0.80032574     0.17790
H837        H  0.39497865  0.88205329  0.69704628     0.17780
N838        N  0.34164223  0.93920936  0.73708845    -0.88930
H839        H  0.38552886  0.73877031  0.79092439     0.35160
H840        H  0.40173924  0.72616865  0.74800016     0.40260
H841        H  0.31764068  0.95414872  0.75591160     0.39880
H842        H  0.32612837  0.94368159  0.71088862     0.34760
C843        C  0.40517075  0.85705291  0.47920922    -0.26970
C844        C  0.39201995  0.86148575  0.51670459    -0.15040
C845        C  0.34945325  0.88748677  0.52525937     0.35590
C846        C  0.32204459  0.90753587  0.49684660    -0.26410
C847        C  0.33357726  0.90135460  0.45949491    -0.15650
C848        C  0.37639462  0.87676820  0.45045442     0.36680
N849        N  0.38986363  0.87062827  0.41240091    -0.89900
H850        H  0.43741835  0.83743662  0.47225526     0.17790
H851        H  0.28979093  0.92686208  0.50430074     0.17780
N852        N  0.33246510  0.89226477  0.56272260    -0.88930
H853        H  0.42115633  0.85013259  0.41053671     0.35160
H854        H  0.39846893  0.90447394  0.40179797     0.40260
H855        H  0.31849742  0.85898504  0.57073357     0.39880
H856        H  0.30381677  0.91634099  0.56431083     0.34760
C857        C  0.41886996  0.59787899  0.47662582    -0.26970
C858        C  0.37565827  0.57330248  0.48373784    -0.15040
C859        C  0.35403194  0.57758445  0.51890232     0.35590
C860        C  0.37480751  0.60855249  0.54535369    -0.26410
C861        C  0.41560420  0.63615532  0.53667321    -0.15650
C862        C  0.43887146  0.62939433  0.50257526     0.36680
N863        N  0.48209535  0.65557169  0.49410341    -0.89900
H864        H  0.43588026  0.59426504  0.44981911     0.17790
H865        H  0.35723818  0.61372981  0.57177516     0.17780
N866        N  0.30965948  0.55316146  0.52678846    -0.88930
H867        H  0.49450587  0.64686923  0.46767803     0.35160
H868        H  0.50861275  0.64448589  0.51283719     0.40260
H869        H  0.28315774  0.56789557  0.50962940     0.39880
H870        H  0.29886711  0.55982805  0.55399094     0.34760
C871        C  0.12993923  0.36467932  0.88268977    -0.26970
C872        C  0.10781514  0.40790202  0.87165888    -0.15040
C873        C  0.06331412  0.40541004  0.85281411     0.35590
C874        C  0.04095979  0.36042247  0.84750589    -0.26410
C875        C  0.06132306  0.31758877  0.86130594    -0.15650
C876        C  0.10737984  0.31983730  0.87774250     0.36680
N877        N  0.13047978  0.27677331  0.89046154    -0.89900
H878        H  0.16479567  0.36589201  0.89614648     0.17790
H879        H  0.00547981  0.35944357  0.83506215     0.17780
N880        N  0.03963623  0.44850177  0.84083510    -0.88930
H881        H  0.16401353  0.28454077  0.90218990     0.35160
H882        H  0.13695988  0.25546754  0.86726820     0.40260
H883        H  0.03015689  0.46766076  0.86452675     0.39880
H884        H  0.00752796  0.44042381  0.82704137     0.34760
C885        C  0.35394845  0.40827092  0.83794826    -0.26970
C886        C  0.33009295  0.42067764  0.87098225    -0.15040
C887        C  0.35246418  0.40925212  0.90526782     0.35590
C888        C  0.39598698  0.38449466  0.90573079    -0.26410
C889        C  0.41926000  0.37080787  0.87313563    -0.15650
C890        C  0.39819585  0.38291944  0.83870661     0.36680
N891        N  0.42108352  0.36881825  0.80489443    -0.89900
H892        H  0.33792271  0.41803324  0.81160929     0.17790
H893        H  0.41237732  0.37616593  0.93226668     0.17780
N894        N  0.33217286  0.42458458  0.93985758    -0.88930
H895        H  0.40103579  0.38045695  0.78204269     0.35160
H896        H  0.42105111  0.33138392  0.80406408     0.40260
H897        H  0.33626176  0.46173746  0.94110438     0.39880
H898        H  0.35147109  0.41079224  0.96238029     0.34760
C899        C  0.20877706  0.71743835  0.91246875    -0.26970
C900        C  0.23484323  0.68506479  0.89077825    -0.15040
C901        C  0.28152160  0.69948021  0.87796749     0.35590
C902        C  0.29918677  0.74490662  0.88587579    -0.26410
C903        C  0.27084834  0.77839080  0.90364168    -0.15650
C904        C  0.22592390  0.76431976  0.91812808     0.36680
N905        N  0.19644527  0.79845430  0.93674324    -0.89900
H906        H  0.17373102  0.70749578  0.92307142     0.17790
H907        H  0.33313076  0.75602091  0.87378355     0.17780
N908        N  0.31162776  0.67066145  0.85502955    -0.88930
H909        H  0.18935013  0.78536877  0.96334224     0.35160
H910        H  0.16373418  0.80066333  0.92249252     0.40260
H911        H  0.29459159  0.66376165  0.82978251     0.39880
H912        H  0.32049899  0.63929432  0.86895768     0.34760
C913        C  0.10970659  0.61606648  0.04773807    -0.26970
C914        C  0.06939171  0.64252132  0.03634069    -0.15040
C915        C  0.05011709  0.63518419  0.00073530     0.35590
C916        C  0.07283124  0.60319321  0.97659389    -0.26410
C917        C  0.11508389  0.57866338  0.98689726    -0.15650
C918        C  0.13320007  0.58495137  0.02332718     0.36680
N919        N  0.17539751  0.56081266  0.03633031    -0.89900
H920        H  0.12437890  0.62125635  0.07528015     0.17790
H921        H  0.05815026  0.59877299  0.94898754     0.17780
N922        N  0.00766293  0.66053773  0.98915968    -0.88930
H923        H  0.17049773  0.52395535  0.03289826     0.35160
H924        H  0.20480683  0.57212039  0.02060989     0.40260
H925        H  0.97936286  0.64920898  0.00608628     0.39880
H926        H  0.99819510  0.65136987  0.96204624     0.34760
C927        C  0.38520820  0.57018662  0.94997226    -0.26970
C928        C  0.33680069  0.58424781  0.94790465    -0.15040
C929        C  0.31965351  0.61971877  0.97242309     0.35590
C930        C  0.35052217  0.63858947  0.99904407    -0.26410
C931        C  0.39782438  0.62233815  0.00318827    -0.15650
C932        C  0.41599086  0.58829735  0.97777073     0.36680
N933        N  0.46391344  0.56940503  0.98035191    -0.89900
H934        H  0.39825575  0.54259700  0.93154770     0.17790
H935        H  0.33636963  0.66478679  0.01823268     0.17780
N936        N  0.27055334  0.63584229  0.97268504    -0.88930
H937        H  0.46106030  0.53277868  0.98613651     0.35160
H938        H  0.48305397  0.58449842  0.00227421     0.40260
H939        H  0.24996955  0.61998014  0.95194453     0.39880
H940        H  0.27078041  0.67262326  0.96716974     0.34760
C941        C  0.86417991  0.86786865  0.60700595    -0.26970
C942        C  0.88686647  0.91113905  0.61675989    -0.15040
C943        C  0.93033703  0.90934919  0.63715273     0.35590
C944        C  0.95153897  0.86453352  0.64491987    -0.26410
C945        C  0.93055104  0.82166385  0.63237842    -0.15650
C946        C  0.88505738  0.82338831  0.61485952     0.36680
N947        N  0.85990422  0.78077697  0.60346250    -0.89900
H948        H  0.82987422  0.86844700  0.59267452     0.17790
H949        H  0.98676052  0.86339619  0.65782681     0.17780
N950        N  0.95413372  0.95280094  0.64819186    -0.88930
H951        H  0.82655013  0.78061661  0.61673271     0.35160
H952        H  0.87746681  0.75002282  0.61286694     0.40260
H953        H  0.96508234  0.97060523  0.62411211     0.39880
H954        H  0.98537932  0.94514280  0.66324535     0.34760
C955        C  0.82142964  0.59153735  0.61162051    -0.26970
C956        C  0.82330687  0.54902309  0.63228389    -0.15040
C957        C  0.86767623  0.53438088  0.64763652     0.35590
C958        C  0.90975237  0.56080664  0.63957402    -0.26410
C959        C  0.90840587  0.60128361  0.61621057    -0.15650
C960        C  0.86316825  0.61712692  0.60259292     0.36680
N961        N  0.85962954  0.65767979  0.57800867    -0.89900
H962        H  0.78745528  0.60248699  0.59949879     0.17790
H963        H  0.94387904  0.54901922  0.65086161     0.17780
N964        N  0.87045464  0.49104406  0.66912845    -0.88930
H965        H  0.82375243  0.66536765  0.57167185     0.35160
H966        H  0.87595003  0.64818590  0.55305409     0.40260
H967        H  0.85093356  0.49652633  0.69342826     0.39880
H968        H  0.90593352  0.48438547  0.67725866     0.34760
C969        C  0.21247745  0.75170456  0.65227560    -0.26970
C970        C  0.19683333  0.71437855  0.62913231    -0.15040
C971        C  0.22678865  0.69646430  0.60149760     0.35590
C972        C  0.27260435  0.71619577  0.59767223    -0.26410
C973        C  0.28914936  0.75250687  0.62169467    -0.15650
C974        C  0.25860894  0.77099388  0.64895439     0.36680
N975        N  0.27489759  0.80777027  0.67382565    -0.89900
H976        H  0.18783118  0.76696055  0.67216298     0.17790
H977        H  0.29626959  0.70199474  0.57660939     0.17780
N978        N  0.20980316  0.66003404  0.57656921    -0.88930
H979        H  0.24836548  0.81570735  0.69328808     0.35160
H980        H  0.28014524  0.83894225  0.65819454     0.40260
H981        H  0.20363675  0.62900593  0.59217074     0.39880
H982        H  0.23631298  0.65149050  0.55723722     0.34760
C983        C  0.16794608  0.63095273  0.75683098    -0.26970
C984        C  0.15381137  0.58403155  0.76632024    -0.15040
C985        C  0.10923013  0.56713039  0.75240588     0.35590
C986        C  0.08016052  0.59732435  0.73038161    -0.26410
C987        C  0.09338951  0.64498976  0.72187673    -0.15650
C988        C  0.13839947  0.66159864  0.73529025     0.36680
N989        N  0.15404571  0.70964446  0.72747671    -0.89900
H990        H  0.20069147  0.64521532  0.76893605     0.17790
H991        H  0.04642740  0.58314982  0.71999664     0.17780
N992        N  0.09114614  0.52026553  0.76162604    -0.88930
H993        H  0.18844828  0.71573650  0.73826893     0.35160
H994        H  0.13093536  0.73289415  0.74135621     0.40260
H995        H  0.11614060  0.50087700  0.77723081     0.39880
H996        H  0.08675596  0.50145683  0.73685865     0.34760
C997        C  0.11285883  0.56260086  0.52111811    -0.26970
C998        C  0.08781360  0.60496911  0.51270564    -0.15040
C999        C  0.09251628  0.62529847  0.47702659     0.35590
C1000       C  0.12437201  0.60424301  0.45142788    -0.26410
C1001       C  0.15203646  0.56393321  0.46111845    -0.15650
C1002       C  0.14518082  0.54218791  0.49603566     0.36680
N1003       N  0.17092428  0.49938059  0.50600981    -0.89900
H1004       H  0.10896153  0.54653074  0.54832590     0.17790
H1005       H  0.12949881  0.62077784  0.42451790     0.17780
N1006       N  0.06769557  0.66882843  0.46779247    -0.88930
H1007       H  0.15813298  0.48546183  0.53104337     0.35160
H1008       H  0.20668351  0.50900505  0.51098876     0.40260
H1009       H  0.03092913  0.66101828  0.46710203     0.39880
H1010       H  0.07689971  0.68030875  0.44113783     0.34760
C1011       C  0.11397591  0.85775167  0.54296271    -0.26970
C1012       C  0.07377141  0.82930346  0.53398640    -0.15040
C1013       C  0.05069479  0.83600701  0.49951582     0.35590
C1014       C  0.06998613  0.86865467  0.47398152    -0.26410
C1015       C  0.11269320  0.89393159  0.48140379    -0.15650
C1016       C  0.13405911  0.88978567  0.51677241     0.36680
N1017       N  0.17778291  0.91518194  0.52497731    -0.89900
H1018       H  0.13135723  0.85289757  0.56961456     0.17790
H1019       H  0.05315552  0.87215679  0.44698133     0.17780
N1020       N  0.00789776  0.80944742  0.49033168    -0.88930
H1021       H  0.18994319  0.90664842  0.55162390     0.35160
H1022       H  0.16973062  0.95173106  0.52511528     0.40260
H1023       H  0.01805124  0.77412537  0.48505706     0.39880
H1024       H  0.99286956  0.82219052  0.46561736     0.34760
loop_ 
_geom_bond_atom_site_label_1 
_geom_bond_atom_site_label_2 
_geom_bond_distance 
_geom_bond_site_symmetry_2 
_ccdc_geom_bond_type 
O1          Cr19   1.952   1_655  S
O1            C9   1.256       .  A
O2          Cr19   2.007   1_655  S
O2            C3   1.271       .  A
C3            O4   1.268       .  A
C3          C945   1.477       .  S
O4          Cr20   1.979   1_655  S
O5          Cr20   2.059       .  S
O5            C6   1.269       .  A
C6            O7   1.247       .  A
C6          C987   1.512       .  S
O7          Cr21   1.952       .  S
O8          Cr21   2.026   1_655  S
O8            C9   1.273       .  A
C9          C959   1.493       .  S
O10         Cr19   2.028       .  S
O10          C18   1.267       .  A
O11         Cr19   1.971       .  S
O11          C12   1.260       .  A
C12          O13   1.269       .  A
C12        C1012   1.481       .  S
O13         Cr20   2.029       .  S
O14         Cr20   1.910       .  S
O14          C15   1.249       .  A
C15          O16   1.274       .  A
C15         C970   1.443       .  S
O16         Cr21   2.036       .  S
O17         Cr21   1.947       .  S
O17          C18   1.251       .  A
C18         C998   1.486       .  S
Cr19         O22   1.762       .  S
Cr20         O22   1.781       .  S
Cr21         O22   1.773       .  S
O23         Cr41   2.019       .  S
O23          C31   1.283       .  A
O24         Cr41   1.979       .  S
O24          C25   1.263       .  A
C25          O26   1.265       .  A
C25         C886   1.496       .  S
O26         Cr42   1.994       .  S
O27         Cr42   2.042       .  S
O27          C28   1.271       .  A
C28          O29   1.243       .  A
C28         C984   1.486       .  S
O29         Cr43   1.950       .  S
O30         Cr43   2.006       .  S
O30          C31   1.284       .  A
C31         C872   1.500       .  S
O32         Cr41   2.007       .  S
O32          C40   1.245       .  A
O33         Cr41   1.956       .  S
O33          C34   1.255       .  A
C34          O35   1.264       .  A
C34         C928   1.472       .  S
O35         Cr42   2.008       .  S
O36         Cr42   1.980       .  S
O36          C37   1.265       .  A
C37          O38   1.286       .  A
C37         C900   1.493       .  S
O38         Cr43   2.027       .  S
O39         Cr43   1.970       .  S
O39          C40   1.238       .  A
C40         C917   1.492       .  S
Cr41         O44   1.768       .  S
Cr42         O44   1.783       .  S
Cr43         O44   1.768       .  S
O45         Cr63   1.963       .  S
O45          C53   1.259       .  A
O46         Cr63   2.020       .  S
O46          C47   1.277       .  A
C47          O48   1.268       .  A
C47         C816   1.467       .  S
O48         Cr64   1.962       .  S
O49         Cr64   2.043       .  S
O49          C50   1.263       .  A
C50          O51   1.246       .  A
C50         C833   1.502       .  S
O51         Cr65   1.954       .  S
O52         Cr65   2.015       .  S
O52          C53   1.269       .  A
C53         C802   1.489       .  S
O54         Cr63   2.035       .  S
O54          C62   1.268       .  A
O55         Cr63   1.976       .  S
O55          C56   1.257       .  A
C56          O57   1.260       .  A
C56         C861   1.475       .  S
O57         Cr64   2.013       .  S
O58         Cr64   1.907       .  S
O58          C59   1.251       .  A
C59          O60   1.278       .  A
C59         C973   1.457       .  S
O60         Cr65   2.042       .  S
O61         Cr65   1.925       .  S
O61          C62   1.246       .  A
C62         C844   1.500       .  S
Cr63         O66   1.768       .  S
Cr64         O66   1.781       .  S
Cr65         O66   1.773       .  S
O67         Cr85   2.017   1_545  S
O67          C75   1.277       .  A
O68         Cr85   1.983   1_545  S
O68          C69   1.265       .  A
C69          O70   1.270   1_545  A
C69         C746   1.500       .  S
O70         Cr86   2.004       .  S
O71         Cr86   2.036       .  S
O71          C72   1.272       .  A
C72          O73   1.249       .  A
C72         C830   1.491       .  S
O73         Cr87   1.958       .  S
O74         Cr87   1.992       .  S
O74          C75   1.274   1_565  A
C75         C760   1.491       .  S
O76         Cr85   2.036       .  S
O76          C84   1.256       .  A
O77         Cr85   1.962       .  S
O77          C78   1.257       .  A
C78          O79   1.259       .  A
C78         C777   1.474       .  S
O79         Cr86   1.988       .  S
O80         Cr86   1.980       .  S
O80          C81   1.268       .  A
C81          O82   1.273       .  A
C81         C903   1.461       .  S
O82         Cr87   2.003       .  S
O83         Cr87   1.970       .  S
O83          C84   1.243       .  A
C84         C788   1.497       .  S
Cr85         O88   1.773       .  S
Cr86         O88   1.781       .  S
Cr87         O88   1.775       .  S
O89        Cr107   1.937       .  S
O89          C97   1.252       .  A
O90        Cr107   1.998       .  S
O90          C91   1.272       .  A
C91          O92   1.270       .  A
C91         C956   1.479       .  S
O92        Cr108   1.982       .  S
O93        Cr108   2.061       .  S
O93          C94   1.268       .  A
C94          O95   1.245       .  A
C94         C704   1.510       .  S
O95        Cr109   1.948       .  S
O96        Cr109   2.031       .  S
O96          C97   1.275       .  A
C97         C819   1.491       .  S
O98        Cr107   2.027       .  S
O98         C106   1.264       .  A
O99        Cr107   1.946       .  S
O99         C100   1.257       .  A
C100        O101   1.267       .  A
C100        C718   1.480       .  S
O101       Cr108   2.029       .  S
O102       Cr108   1.910       .  S
O102        C103   1.249       .  A
C103        O104   1.280       .  A
C103        C693   1.470       .  S
O104       Cr109   2.045       .  S
O105       Cr109   1.940       .  S
O105        C106   1.248       .  A
C106        C732   1.482       .  S
Cr107       O110   1.763       .  S
Cr108       O110   1.787       .  S
Cr109       O110   1.767       .  S
O111       Cr129   1.998       .  S
O111        C119   1.273       .  A
O112       Cr129   1.983       .  S
O112        C113   1.267       .  A
C113        O114   1.269       .  A
C113        C763   1.495       .  S
O114       Cr130   1.995       .  S
O115       Cr130   2.031       .  S
O115        C116   1.270       .  A
C116        O117   1.248       .  A
C116        C707   1.487       .  S
O117       Cr131   1.962       .  S
O118       Cr131   2.013       .  S
O118        C119   1.276       .  A
C119        C889   1.489       .  S
O120       Cr129   2.035       .  S
O120        C128   1.258       .  A
O121       Cr129   1.957       .  S
O121        C122   1.254       .  A
C122        O123   1.260       .  A
C122        C665   1.481       .  S
O123       Cr130   1.999       .  S
O124       Cr130   1.983       .  S
O124        C125   1.267       .  A
C125        O126   1.271       .  A
C125        C676   1.468       .  S
O126       Cr131   2.001       .  S
O127       Cr131   1.971       .  S
O127        C128   1.245       .  A
C128        C648   1.489       .  S
Cr129       O132   1.775       .  S
Cr130       O132   1.785       .  S
Cr131       O132   1.779       .  S
O133       Cr151   2.015       .  S
O133        C141   1.276       .  A
O134       Cr151   1.968       .  S
O134        C135   1.259       .  A
C135        O136   1.266       .  A
C135        C805   1.490       .  S
O136       Cr152   2.004   1_565  S
O137       Cr152   2.034       .  S
O137        C138   1.280       .  A
C138        O139   1.254       .  A
C138        C606   1.487       .  S
O139       Cr153   1.956       .  S
O140       Cr153   1.985   1_565  S
O140        C141   1.270       .  A
C141        C942   1.490       .  S
O142       Cr151   2.008   1_545  S
O142        C150   1.254       .  A
O143       Cr151   1.990   1_545  S
O143        C144   1.261       .  A
C144        O145   1.262       .  A
C144        C637   1.477       .  S
O145       Cr152   2.000       .  S
O146       Cr152   1.956       .  S
O146        C147   1.255       .  A
C147        O148   1.276       .  A
C147        C690   1.469       .  S
O148       Cr153   2.018       .  S
O149       Cr153   1.982       .  S
O149        C150   1.246       .  A
C150        C620   1.476       .  S
Cr151       O154   1.766   1_565  S
Cr152       O154   1.780       .  S
Cr153       O154   1.772       .  S
O155       Cr173   2.025   1_455  S
O155        C163   1.283       .  A
O156       Cr173   1.997   1_455  S
O156        C157   1.268       .  A
C157        O158   1.265   1_455  A
C157        C875   1.499       .  S
O158       Cr174   1.982       .  S
O159       Cr174   2.049       .  S
O159        C160   1.271       .  A
C160        O161   1.241       .  A
C160        C609   1.484       .  S
O161       Cr175   1.947       .  S
O162       Cr175   2.000       .  S
O162        C163   1.280   1_655  A
C163        C749   1.495       .  S
O164       Cr173   2.042       .  S
O164        C172   1.252       .  A
O165       Cr173   1.948       .  S
O165        C166   1.257       .  A
C166        O167   1.269       .  A
C166        C578   1.496       .  S
O167       Cr174   2.024       .  S
O168       Cr174   1.977       .  S
O168        C169   1.268       .  A
C169        O170   1.281       .  A
C169        C679   1.477       .  S
O170       Cr175   2.018       .  S
O171       Cr175   1.960       .  S
O171        C172   1.234       .  A
C172        C595   1.495       .  S
Cr173       O176   1.770       .  S
Cr174       O176   1.776       .  S
Cr175       O176   1.775       .  S
O177       Cr195   2.019       .  S
O177        C185   1.272       .  A
O178       Cr195   1.961       .  S
O178        C179   1.249       .  A
C179        O180   1.271       .  A
C179        C564   1.504       .  S
O180       Cr196   2.066       .  S
O181       Cr196   1.978       .  S
O181        C182   1.268       .  A
C182        O183   1.270       .  A
C182        C536   1.469       .  S
O183       Cr197   2.000       .  S
O184       Cr197   1.950       .  S
O184        C185   1.259       .  A
C185        C522   1.485       .  S
O186       Cr195   1.946       .  S
O186        C194   1.250       .  A
O187       Cr195   2.021       .  S
O187        C188   1.270       .  A
C188        O189   1.244       .  A
C188        C550   1.431       .  S
O189       Cr196   1.900       .  S
O190       Cr196   2.029       .  S
O190        C191   1.271       .  A
C191        O192   1.262       .  A
C191        C651   1.494       .  S
O192       Cr197   1.976       .  S
O193       Cr197   2.030       .  S
O193        C194   1.264       .  A
C194        C581   1.490       .  S
Cr195       O198   1.766       .  S
Cr196       O198   1.777       .  S
Cr197       O198   1.762       .  S
O199       Cr217   2.016       .  S
O199        C207   1.272   1_655  A
O200       Cr217   1.949       .  S
O200        C201   1.246       .  A
C201        O202   1.269       .  A
C201        C567   1.508       .  S
O202       Cr218   2.059       .  S
O203       Cr218   1.964       .  S
O203        C204   1.266   1_655  A
C204        O205   1.274       .  A
C204        C483   1.467       .  S
O205       Cr219   2.013   1_455  S
O206       Cr219   1.953   1_455  S
O206        C207   1.257       .  A
C207        C494   1.490       .  S
O208       Cr217   1.932       .  S
O208        C216   1.249       .  A
O209       Cr217   2.050       .  S
O209        C210   1.276       .  A
C210        O211   1.245       .  A
C210        C508   1.466       .  S
O211       Cr218   1.895       .  S
O212       Cr218   2.024       .  S
O212        C213   1.266       .  A
C213        O214   1.261       .  A
C213        C623   1.478       .  S
O214       Cr219   1.985       .  S
O215       Cr219   2.024       .  S
O215        C216   1.265       .  A
C216        C721   1.481       .  S
Cr217       O220   1.767       .  S
Cr218       O220   1.771       .  S
Cr219       O220   1.763       .  S
O221       Cr239   2.011   1_565  S
O221        C229   1.269       .  A
O222       Cr239   1.952       .  S
O222        C223   1.250       .  A
C223        O224   1.274       .  A
C223        C466   1.511       .  S
O224       Cr240   2.067       .  S
O225       Cr240   1.968   1_565  S
O225        C226   1.265       .  A
C226        O227   1.272       .  A
C226        C441   1.466       .  S
O227       Cr241   2.013       .  S
O228       Cr241   1.969       .  S
O228        C229   1.262       .  A
C229        C452   1.487       .  S
O230       Cr239   1.930       .  S
O230        C238   1.246       .  A
O231       Cr239   2.018       .  S
O231        C232   1.267       .  A
C232        O233   1.243       .  A
C232        C553   1.437       .  S
O233       Cr240   1.899       .  S
O234       Cr240   2.023       .  S
O234        C235   1.269       .  A
C235        O236   1.266       .  A
C235        C592   1.494       .  S
O236       Cr241   1.986   1_545  S
O237       Cr241   2.048   1_545  S
O237        C238   1.270       .  A
C238        C662   1.491       .  S
Cr239       O242   1.756       .  S
Cr240       O242   1.767       .  S
Cr241       O242   1.762   1_565  S
O243       Cr261   2.022       .  S
O243        C251   1.272       .  A
O244       Cr261   1.956       .  S
O244        C245   1.251       .  A
C245        O246   1.271       .  A
C245        C469   1.501       .  S
O246       Cr262   2.058       .  S
O247       Cr262   1.968       .  S
O247        C248   1.264       .  A
C248        O249   1.270       .  A
C248        C424   1.468       .  S
O249       Cr263   2.007       .  S
O250       Cr263   1.956       .  S
O250        C251   1.259       .  A
C251        C410   1.492       .  S
O252       Cr261   1.954       .  S
O252        C260   1.251       .  A
O253       Cr261   2.027       .  S
O253        C254   1.272       .  A
C254        O255   1.248       .  A
C254        C511   1.458       .  S
O255       Cr262   1.914       .  S
O256       Cr262   2.029       .  S
O256        C257   1.268       .  A
C257        O258   1.263       .  A
C257        C735   1.480       .  S
O258       Cr263   1.971       .  S
O259       Cr263   2.035       .  S
O259        C260   1.268       .  A
C260        C634   1.496       .  S
Cr261       O264   1.765       .  S
Cr262       O264   1.775       .  S
Cr263       O264   1.763       .  S
O265       Cr283   2.022       .  S
O265        C273   1.273       .  A
O266       Cr283   1.961       .  S
O266        C267   1.252       .  A
C267        O268   1.271       .  A
C267        C396   1.505       .  S
O268       Cr284   2.051       .  S
O269       Cr284   1.978       .  S
O269        C270   1.265       .  A
C270        O271   1.268       .  A
C270        C455   1.467       .  S
O271       Cr285   2.002       .  S
O272       Cr285   1.961       .  S
O272        C273   1.259       .  A
C273        C539   1.495       .  S
O274       Cr283   1.952       .  S
O274        C282   1.253       .  A
O275       Cr283   2.025       .  S
O275        C276   1.270       .  A
C276        O277   1.248       .  A
C276        C385   1.442       .  S
O277       Cr284   1.915       .  S
O278       Cr284   2.023       .  S
O278        C279   1.269       .  A
C279        O280   1.264       .  A
C279        C791   1.489       .  S
O280       Cr285   1.984       .  S
O281       Cr285   2.021       .  S
O281        C282   1.264       .  A
C282        C931   1.478       .  S
Cr283       O286   1.772       .  S
Cr284       O286   1.774       .  S
Cr285       O286   1.768       .  S
O287       Cr305   2.021       .  S
O287        C295   1.272       .  A
O288       Cr305   1.955       .  S
O288        C289   1.248       .  A
C289        O290   1.268       .  A
C289        C399   1.510       .  S
O290       Cr306   2.058       .  S
O291       Cr306   1.968       .  S
O291        C292   1.266       .  A
C292        O293   1.272       .  A
C292        C497   1.464       .  S
O293       Cr307   2.006       .  S
O294       Cr307   1.953       .  S
O294        C295   1.258       .  A
C295        C427   1.493       .  S
O296       Cr305   1.944       .  S
O296        C304   1.251       .  A
O297       Cr305   2.039       .  S
O297        C298   1.276       .  A
C298        O299   1.248       .  A
C298        C368   1.456       .  S
O299       Cr306   1.903       .  S
O300       Cr306   2.025       .  S
O300        C301   1.267       .  A
C301        O302   1.259       .  A
C301       C1001   1.482       .  S
O302       Cr307   1.974       .  S
O303       Cr307   2.024       .  S
O303        C304   1.266       .  A
C304        C858   1.482       .  S
Cr305       O308   1.769       .  S
Cr306       O308   1.776       .  S
Cr307       O308   1.763       .  S
O309       Cr327   2.017   1_655  S
O309        C317   1.273       .  A
O310       Cr327   1.940       .  S
O310        C311   1.243       .  A
C311        O312   1.272       .  A
C311        C354   1.500       .  S
O312       Cr328   2.070       .  S
O313       Cr328   1.983   1_655  S
O313        C314   1.270       .  A
C314        O315   1.268       .  A
C314        C525   1.475       .  S
O315       Cr329   1.991       .  S
O316       Cr329   1.962       .  S
O316        C317   1.259       .  A
C317        C438   1.488       .  S
O318       Cr327   1.927       .  S
O318        C326   1.244       .  A
O319       Cr327   2.030       .  S
O319        C320   1.271       .  A
C320        O321   1.247       .  A
C320        C382   1.457       .  S
O321       Cr328   1.911       .  S
O322       Cr328   2.024       .  S
O322        C323   1.271       .  A
C323        O324   1.265       .  A
C323        C914   1.478       .  S
O324       Cr329   1.976   1_455  S
O325       Cr329   2.033   1_455  S
O325        C326   1.266       .  A
C326        C774   1.489       .  S
Cr327       O330   1.758       .  S
Cr328       O330   1.774       .  S
Cr329       O330   1.767   1_655  S
O331       Cr349   2.039       .  S
O331        C339   1.277   1_565  A
O332       Cr349   1.955       .  S
O332        C333   1.248       .  A
C333        O334   1.272       .  A
C333        C357   1.503       .  S
O334       Cr350   2.069       .  S
O335       Cr350   1.974       .  S
O335        C336   1.267   1_565  A
C336        O337   1.270       .  A
C336        C413   1.468       .  S
O337       Cr351   2.006   1_545  S
O338       Cr351   1.937   1_545  S
O338        C339   1.254       .  A
C339        C480   1.494       .  S
O340       Cr349   1.941       .  S
O340        C348   1.248       .  A
O341       Cr349   2.034       .  S
O341        C342   1.272       .  A
C342        O343   1.244       .  A
C342        C371   1.441       .  S
O343       Cr350   1.900       .  S
O344       Cr350   2.039       .  S
O344        C345   1.270       .  A
C345        O346   1.260       .  A
C345        C847   1.491       .  S
O346       Cr351   1.955       .  S
O347       Cr351   2.030       .  S
O347        C348   1.265       .  A
C348       C1015   1.484       .  S
Cr349       O352   1.769       .  S
Cr350       O352   1.780       .  S
Cr351       O352   1.759       .  S
C353        C354   1.417       .  A
C353        C358   1.412       .  A
C353        H360   1.083       .  S
C354        C355   1.408       .  A
C355        C356   1.410       .  A
C355        N362   1.438       .  S
C356        C357   1.417       .  A
C356        H361   1.075       .  S
C357        C358   1.412       .  A
C358        N359   1.438       .  S
N359        H363   1.045       .  S
N359        H364   1.044       .  S
N362        H365   1.043       .  S
N362        H366   1.046       .  S
C367        C368   1.412       .  A
C367        C372   1.394       .  A
C367        H374   1.085       .  S
C368        C369   1.401       .  A
C369        C370   1.395       .  A
C369        N376   1.438       .  S
C370        C371   1.407       .  A
C370        H375   1.085       .  S
C371        C372   1.396       .  A
C372        N373   1.438       .  S
N373        H377   1.046       .  S
N373        H378   1.046       .  S
N376        H379   1.045       .  S
N376        H380   1.046       .  S
C381        C382   1.411       .  A
C381        C386   1.394       .  A
C381        H388   1.084       .  S
C382        C383   1.403       .  A
C383        C384   1.394       .  A
C383        N390   1.437       .  S
C384        C385   1.405       .  A
C384        H389   1.085       .  S
C385        C386   1.397       .  A
C386        N387   1.438       .  S
N387        H391   1.046       .  S
N387        H392   1.045       .  S
N390        H393   1.045       .  S
N390        H394   1.046       .  S
C395        C396   1.412       .  A
C395        C400   1.419       .  A
C395        H402   1.083       .  S
C396        C397   1.418       .  A
C397        C398   1.404       .  A
C397        N404   1.433       .  S
C398        C399   1.412       .  A
C398        H403   1.084       .  S
C399        C400   1.419       .  A
C400        N401   1.438       .  S
N401        H405   1.046       .  S
N401        H406   1.044       .  S
N404        H407   1.045       .  S
N404        H408   1.044       .  S
C409        C410   1.411       .  A
C409        C414   1.398       .  A
C409        H416   1.084       .  S
C410        C411   1.414       .  A
C411        C412   1.409       .  A
C411        N418   1.437       .  S
C412        C413   1.405       .  A
C412        H417   1.084   1_545  S
C413        C414   1.408       .  A
C414        N415   1.437       .  S
N415        H419   1.045       .  S
N415        H420   1.044       .  S
N418        H421   1.045       .  S
N418        H422   1.046   1_545  S
C423        C424   1.404       .  A
C423        C428   1.409       .  A
C423        H430   1.084       .  S
C424        C425   1.402       .  A
C425        C426   1.402       .  A
C425        N432   1.438       .  S
C426        C427   1.413       .  A
C426        H431   1.083       .  S
C427        C428   1.416       .  A
C428        N429   1.437       .  S
N429        H433   1.046       .  S
N429        H434   1.046       .  S
N432        H435   1.046       .  S
N432        H436   1.046       .  S
C437        C438   1.402       .  A
C437        C442   1.405       .  A
C437        H444   1.083       .  S
C438        C439   1.427       .  A
C439        C440   1.399       .  A
C439        N446   1.434       .  S
C440        C441   1.392       .  A
C440        H445   1.084       .  S
C441        C442   1.412       .  A
C442        N443   1.436   1_565  S
N443        H447   1.046       .  S
N443        H448   1.045       .  S
N446        H449   1.042       .  S
N446        H450   1.044       .  S
C451        C452   1.409       .  A
C451        C456   1.400       .  A
C451        H458   1.084       .  S
C452        C453   1.415       .  A
C453        C454   1.405       .  A
C453        N460   1.438       .  S
C454        C455   1.403       .  A
C454        H459   1.084       .  S
C455        C456   1.408       .  A
C456        N457   1.435       .  S
N457        H461   1.045       .  S
N457        H462   1.044       .  S
N460        H463   1.045       .  S
N460        H464   1.046       .  S
C465        C466   1.413       .  A
C465        C470   1.408       .  A
C465        H472   1.084       .  S
C466        C467   1.417       .  A
C467        C468   1.419       .  A
C467        N474   1.437       .  S
C468        C469   1.412       .  A
C468        H473   1.083       .  S
C469        C470   1.418       .  A
C470        N471   1.440       .  S
N471        H475   1.046       .  S
N471        H476   1.043       .  S
N474        H477   1.046       .  S
N474        H478   1.046       .  S
C479        C480   1.405       .  A
C479        C484   1.409       .  A
C479        H486   1.083       .  S
C480        C481   1.427       .  A
C481        C482   1.400       .  A
C481        N488   1.439       .  S
C482        C483   1.392       .  A
C482        H487   1.084       .  S
C483        C484   1.412       .  A
C484        N485   1.438   1_455  S
N485        H489   1.046       .  S
N485        H490   1.045       .  S
N488        H491   1.046       .  S
N488        H492   1.046       .  S
C493        C494   1.406       .  A
C493        C498   1.406       .  A
C493        H500   1.083       .  S
C494        C495   1.426       .  A
C495        C496   1.395       .  A
C495        N502   1.433       .  S
C496        C497   1.395       .  A
C496        H501   1.085       .  S
C497        C498   1.410       .  A
C498        N499   1.438       .  S
N499        H503   1.046       .  S
N499        H504   1.045       .  S
N502        H505   1.045       .  S
N502        H506   1.045       .  S
C507        C508   1.417       .  A
C507        C512   1.388       .  A
C507        H514   1.083       .  S
C508        C509   1.401       .  A
C509        C510   1.397       .  A
C509        N516   1.438       .  S
C510        C511   1.413       .  A
C510        H515   1.084       .  S
C511        C512   1.397       .  A
C512        N513   1.438       .  S
N513        H517   1.046       .  S
N513        H518   1.046       .  S
N516        H519   1.044       .  S
N516        H520   1.046       .  S
C521        C522   1.403       .  A
C521        C526   1.391       .  A
C521        H528   1.084       .  S
C522        C523   1.414       .  A
C523        C524   1.411       .  A
C523        N530   1.437       .  S
C524        C525   1.406       .  A
C524        H529   1.084       .  S
C525        C526   1.417       .  A
C526        N527   1.438       .  S
N527        H531   1.046       .  S
N527        H532   1.039       .  S
N530        H533   1.045       .  S
N530        H534   1.046       .  S
C535        C536   1.396       .  A
C535        C540   1.403       .  A
C535        H542   1.084       .  S
C536        C537   1.407       .  A
C537        C538   1.407       .  A
C537        N544   1.432       .  S
C538        C539   1.409       .  A
C538        H543   1.083       .  S
C539        C540   1.423       .  A
C540        N541   1.437       .  S
N541        H545   1.046       .  S
N541        H546   1.043       .  S
N544        H547   1.046       .  S
N544        H548   1.045       .  S
C549        C550   1.392       .  A
C549        C554   1.390       .  A
C549        H556   1.085       .  S
C550        C551   1.415       .  A
C551        C552   1.390       .  A
C551        N558   1.439       .  S
C552        C553   1.390       .  A
C552        H557   1.085       .  S
C553        C554   1.413       .  A
C554        N555   1.440       .  S
N555        H559   1.046       .  S
N555        H560   1.046       .  S
N558        H561   1.042       .  S
N558        H562   1.046       .  S
C563        C564   1.412       .  A
C563        C568   1.409       .  A
C563        H570   1.075       .  S
C564        C565   1.409       .  A
C565        C566   1.416       .  A
C565        N572   1.438       .  S
C566        C567   1.418       .  A
C566        H571   1.083       .  S
C567        C568   1.415       .  A
C568        N569   1.436       .  S
N569        H573   1.045       .  S
N569        H574   1.043       .  S
N572        H575   1.045       .  S
N572        H576   1.045       .  S
C577        C578   1.405       .  A
C577        C582   1.391   1_556  A
C577        H584   1.083   1_556  S
C578        C579   1.415       .  A
C579        C580   1.420       .  A
C579        N586   1.436       .  S
C580        C581   1.409   1_556  A
C580        H585   1.083       .  S
C581        C582   1.412       .  A
C582        N583   1.435       .  S
N583        H587   1.046       .  S
N583        H588   1.046       .  S
N586        H589   1.046       .  S
N586        H590   1.046       .  S
C591        C592   1.400       .  A
C591        C596   1.403   1_554  A
C591        H598   1.084   1_554  S
C592        C593   1.420       .  A
C593        C594   1.416       .  A
C593        N600   1.437       .  S
C594        C595   1.404   1_554  A
C594        H599   1.083       .  S
C595        C596   1.421       .  A
C596        N597   1.439       .  S
N597        H601   1.046       .  S
N597        H602   1.045       .  S
N600        H603   1.045       .  S
N600        H604   1.046       .  S
C605        C606   1.399       .  A
C605        C610   1.412       .  A
C605        H612   1.084       .  S
C606        C607   1.423       .  A
C607        C608   1.413       .  A
C607        N614   1.438       .  S
C608        C609   1.399       .  A
C608        H613   1.084       .  S
C609        C610   1.421       .  A
C610        N611   1.439       .  S
N611        H615   1.046       .  S
N611        H616   1.045       .  S
N614        H617   1.045       .  S
N614        H618   1.046       .  S
C619        C620   1.401       .  A
C619        C624   1.401       .  A
C619        H626   1.083       .  S
C620        C621   1.418       .  A
C621        C622   1.404       .  A
C621        N628   1.438       .  S
C622        C623   1.402       .  A
C622        H627   1.084       .  S
C623        C624   1.419       .  A
C624        N625   1.438       .  S
N625        H629   1.046       .  S
N625        H630   1.040       .  S
N628        H631   1.044   1_545  S
N628        H632   1.046       .  S
C633        C634   1.411       .  A
C633        C638   1.420       .  A
C633        H640   1.083       .  S
C634        C635   1.424       .  A
C635        C636   1.392       .  A
C635        N642   1.434       .  S
C636        C637   1.395       .  A
C636        H641   1.083       .  S
C637        C638   1.410       .  A
C638        N639   1.436       .  S
N639        H643   1.046       .  S
N639        H644   1.046       .  S
N642        H645   1.046       .  S
N642        H646   1.044       .  S
C647        C648   1.406       .  A
C647        C652   1.401       .  A
C647        H654   1.083       .  S
C648        C649   1.408   1_556  A
C649        C650   1.417       .  A
C649        N656   1.436       .  S
C650        C651   1.413       .  A
C650        H655   1.083       .  S
C651        C652   1.414   1_554  A
C652        N653   1.439       .  S
N653        H657   1.046       .  S
N653        H658   1.046       .  S
N656        H659   1.046       .  S
N656        H660   1.046       .  S
C661        C662   1.409   1_556  A
C661        C666   1.415       .  A
C661        H668   1.083       .  S
C662        C663   1.422       .  A
C663        C664   1.391   1_554  A
C663        N670   1.441       .  S
C664        C665   1.398       .  A
C664        H669   1.084       .  S
C665        C666   1.410       .  A
C666        N667   1.431       .  S
N667        H671   1.045       .  S
N667        H672   1.045       .  S
N670        H673   1.046       .  S
N670        H674   1.046       .  S
C675        C676   1.386       .  A
C675        C680   1.396       .  A
C675        H682   1.085       .  S
C676        C677   1.414       .  A
C677        C678   1.404       .  A
C677        N684   1.424       .  S
C678        C679   1.394       .  A
C678        H683   1.084       .  S
C679        C680   1.419       .  A
C680        N681   1.426       .  S
N681        H685   1.044       .  S
N681        H686   1.046       .  S
N684        H687   1.046       .  S
N684        H688   1.045       .  S
C689        C690   1.390       .  A
C689        C694   1.395       .  A
C689        H696   1.084       .  S
C690        C691   1.424       .  A
C691        C692   1.395       .  A
C691        N698   1.433       .  S
C692        C693   1.389       .  A
C692        H697   1.084       .  S
C693        C694   1.422       .  A
C694        N695   1.431       .  S
N695        H699   1.046       .  S
N695        H700   1.046       .  S
N698        H701   1.046       .  S
N698        H702   1.046       .  S
C703        C704   1.413       .  A
C703        C708   1.406       .  A
C703        H710   1.084       .  S
C704        C705   1.419       .  A
C705        C706   1.419       .  A
C705        N712   1.437       .  S
C706        C707   1.408       .  A
C706        H711   1.084       .  S
C707        C708   1.415       .  A
C708        N709   1.438       .  S
N709        H713   1.046       .  S
N709        H714   1.044       .  S
N712        H715   1.045       .  S
N712        H716   1.046       .  S
C717        C718   1.400       .  A
C717        C722   1.388       .  A
C717        H724   1.083       .  S
C718        C719   1.415       .  A
C719        C720   1.416       .  A
C719        N726   1.437       .  S
C720        C721   1.407       .  A
C720        H725   1.083       .  S
C721        C722   1.415       .  A
C722        N723   1.440       .  S
N723        H727   1.046       .  S
N723        H728   1.043       .  S
N726        H729   1.046       .  S
N726        H730   1.046       .  S
C731        C732   1.405       .  A
C731        C736   1.418       .  A
C731        H738   1.083       .  S
C732        C733   1.414       .  A
C733        C734   1.395       .  A
C733        N740   1.438       .  S
C734        C735   1.398       .  A
C734        H739   1.085       .  S
C735        C736   1.416       .  A
C736        N737   1.437       .  S
N737        H741   1.046       .  S
N737        H742   1.046       .  S
N740        H743   1.045       .  S
N740        H744   1.046       .  S
C745        C746   1.413       .  A
C745        C750   1.414       .  A
C745        H752   1.083   1_545  S
C746        C747   1.419       .  A
C747        C748   1.403       .  A
C747        N754   1.433       .  S
C748        C749   1.407       .  A
C748        H753   1.084       .  S
C749        C750   1.411       .  A
C750        N751   1.437       .  S
N751        H755   1.046   1_545  S
N751        H756   1.045       .  S
N754        H757   1.046       .  S
N754        H758   1.044       .  S
C759        C760   1.408       .  A
C759        C764   1.408       .  A
C759        H766   1.084       .  S
C760        C761   1.411       .  A
C761        C762   1.410       .  A
C761        N768   1.438       .  S
C762        C763   1.411       .  A
C762        H767   1.083       .  S
C763        C764   1.414       .  A
C764        N765   1.438       .  S
N765        H769   1.046       .  S
N765        H770   1.046       .  S
N768        H771   1.046   1_545  S
N768        H772   1.046       .  S
C773        C774   1.409   1_556  A
C773        C778   1.410       .  A
C773        H780   1.083       .  S
C774        C775   1.423       .  A
C775        C776   1.389   1_554  A
C775        N782   1.441       .  S
C776        C777   1.396       .  A
C776        H781   1.085       .  S
C777        C778   1.417       .  A
C778        N779   1.437       .  S
N779        H783   1.045       .  S
N779        H784   1.043       .  S
N782        H785   1.046       .  S
N782        H786   1.046       .  S
C787        C788   1.410       .  A
C787        C792   1.401       .  A
C787        H794   1.084       .  S
C788        C789   1.414   1_556  A
C789        C790   1.418       .  A
C789        N796   1.436       .  S
C790        C791   1.410       .  A
C790        H795   1.084       .  S
C791        C792   1.405   1_554  A
C792        N793   1.433       .  S
N793        H797   1.046       .  S
N793        H798   1.046       .  S
N796        H799   1.045       .  S
N796        H800   1.046       .  S
C801        C802   1.404       .  A
C801        C806   1.402       .  A
C801        H808   1.084       .  S
C802        C803   1.420       .  A
C803        C804   1.407       .  A
C803        N810   1.436       .  S
C804        C805   1.407       .  A
C804        H809   1.084       .  S
C805        C806   1.417       .  A
C806        N807   1.439       .  S
N807        H811   1.046       .  S
N807        H812   1.046       .  S
N810        H813   1.041       .  S
N810        H814   1.045       .  S
C815        C816   1.392       .  A
C815        C820   1.394       .  A
C815        H822   1.085       .  S
C816        C817   1.413       .  A
C817        C818   1.408       .  A
C817        N824   1.438       .  S
C818        C819   1.404       .  A
C818        H823   1.083       .  S
C819        C820   1.430       .  A
C820        N821   1.434       .  S
N821        H825   1.044       .  S
N821        H826   1.046       .  S
N824        H827   1.045       .  S
N824        H828   1.046       .  S
C829        C830   1.412       .  A
C829        C834   1.408       .  A
C829        H836   1.085       .  S
C830        C831   1.412       .  A
C831        C832   1.412       .  A
C831        N838   1.437       .  S
C832        C833   1.416       .  A
C832        H837   1.084       .  S
C833        C834   1.417       .  A
C834        N835   1.440       .  S
N835        H839   1.046       .  S
N835        H840   1.042       .  S
N838        H841   1.043       .  S
N838        H842   1.046       .  S
C843        C844   1.410       .  A
C843        C848   1.419       .  A
C843        H850   1.083       .  S
C844        C845   1.426       .  A
C845        C846   1.393       .  A
C845        N852   1.441       .  S
C846        C847   1.399       .  A
C846        H851   1.084       .  S
C847        C848   1.416       .  A
C848        N849   1.437       .  S
N849        H853   1.046       .  S
N849        H854   1.046       .  S
N852        H855   1.046       .  S
N852        H856   1.046       .  S
C857        C858   1.406       .  A
C857        C862   1.401       .  A
C857        H864   1.084       .  S
C858        C859   1.413       .  A
C859        C860   1.412       .  A
C859        N866   1.437       .  S
C860        C861   1.405       .  A
C860        H865   1.084       .  S
C861        C862   1.407       .  A
C862        N863   1.438       .  S
N863        H867   1.046       .  S
N863        H868   1.046       .  S
N866        H869   1.045       .  S
N866        H870   1.046       .  S
C871        C872   1.411       .  A
C871        C876   1.411       .  A
C871        H878   1.083       .  S
C872        C873   1.412       .  A
C873        C874   1.413       .  A
C873        N880   1.438       .  S
C874        C875   1.413       .  A
C874        H879   1.083       .  S
C875        C876   1.411       .  A
C876        N877   1.438       .  S
N877        H881   1.046       .  S
N877        H882   1.046       .  S
N880        H883   1.046       .  S
N880        H884   1.046       .  S
C885        C886   1.412       .  A
C885        C890   1.422       .  A
C885        H892   1.083       .  S
C886        C887   1.419       .  A
C887        C888   1.396       .  A
C887        N894   1.440       .  S
C888        C889   1.400       .  A
C888        H893   1.084       .  S
C889        C890   1.413       .  A
C890        N891   1.436       .  S
N891        H895   1.045       .  S
N891        H896   1.046       .  S
N894        H897   1.044       .  S
N894        H898   1.046       .  S
C899        C900   1.403       .  A
C899        C904   1.407       .  A
C899        H906   1.084       .  S
C900        C901   1.436       .  A
C901        C902   1.389       .  A
C901        N908   1.431       .  S
C902        C903   1.385       .  A
C902        H907   1.086       .  S
C903        C904   1.411       .  A
C904        N905   1.430       .  S
N905        H909   1.045       .  S
N905        H910   1.046       .  S
N908        H911   1.044       .  S
N908        H912   1.038       .  S
C913        C914   1.404       .  A
C913        C918   1.404       .  A
C913        H920   1.084       .  S
C914        C915   1.407       .  A
C915        C916   1.404   1_554  A
C915        N922   1.438   1_554  S
C916        C917   1.410       .  A
C916        H921   1.083       .  S
C917        C918   1.418   1_556  A
C918        N919   1.432       .  S
N919        H923   1.045       .  S
N919        H924   1.045       .  S
N922        H925   1.046   1_456  S
N922        H926   1.046   1_455  S
C927        C928   1.405       .  A
C927        C932   1.411       .  A
C927        H934   1.084       .  S
C928        C929   1.416       .  A
C929        C930   1.391       .  A
C929        N936   1.439       .  S
C930        C931   1.400   1_556  A
C930        H935   1.085   1_556  S
C931        C932   1.419   1_554  A
C932        N933   1.438       .  S
N933        H937   1.046       .  S
N933        H938   1.042   1_556  S
N936        H939   1.041       .  S
N936        H940   1.045       .  S
C941        C942   1.407       .  A
C941        C946   1.400       .  A
C941        H948   1.084       .  S
C942        C943   1.414       .  A
C943        C944   1.411       .  A
C943        N950   1.437       .  S
C944        C945   1.406       .  A
C944        H949   1.084       .  S
C945        C946   1.414       .  A
C946        N947   1.439       .  S
N947        H951   1.046       .  S
N947        H952   1.044       .  S
N950        H953   1.046       .  S
N950        H954   1.046       .  S
C955        C956   1.400       .  A
C955        C960   1.400       .  A
C955        H962   1.084       .  S
C956        C957   1.412       .  A
C957        C958   1.412       .  A
C957        N964   1.437       .  S
C958        C959   1.408       .  A
C958        H963   1.083       .  S
C959        C960   1.420       .  A
C960        N961   1.439       .  S
N961        H965   1.046       .  S
N961        H966   1.046       .  S
N964        H967   1.045       .  S
N964        H968   1.046       .  S
C969        C970   1.406       .  A
C969        C974   1.396       .  A
C969        H976   1.084       .  S
C970        C971   1.397       .  A
C971        C972   1.394       .  A
C971        N978   1.439       .  S
C972        C973   1.412       .  A
C972        H977   1.085       .  S
C973        C974   1.403       .  A
C974        N975   1.438       .  S
N975        H979   1.046       .  S
N975        H980   1.046       .  S
N978        H981   1.046       .  S
N978        H982   1.046       .  S
C983        C984   1.408       .  A
C983        C988   1.417       .  A
C983        H990   1.084       .  S
C984        C985   1.417       .  A
C985        C986   1.411       .  A
C985        N992   1.439       .  S
C986        C987   1.413       .  A
C986        H991   1.084       .  S
C987        C988   1.418       .  A
C988        N989   1.436       .  S
N989        H993   1.046       .  S
N989        H994   1.045       .  S
N992        H995   1.044       .  S
N992        H996   1.046       .  S
C997        C998   1.406       .  A
C997       C1002   1.402       .  A
C997       H1004   1.084       .  S
C998        C999   1.412       .  A
C999       C1000   1.414       .  A
C999       N1006   1.437       .  S
C1000      C1001   1.407       .  A
C1000      H1005   1.084       .  S
C1001      C1002   1.410       .  A
C1002      N1003   1.439       .  S
N1003      H1007   1.046       .  S
N1003      H1008   1.045       .  S
N1006      H1009   1.045       .  S
N1006      H1010   1.046       .  S
C1011      C1012   1.407       .  A
C1011      C1016   1.414       .  A
C1011      H1018   1.084       .  S
C1012      C1013   1.410       .  A
C1013      C1014   1.401       .  A
C1013      N1020   1.439       .  S
C1014      C1015   1.406       .  A
C1014      H1019   1.084       .  S
C1015      C1016   1.411       .  A
C1016      N1017   1.437       .  S
N1017      H1021   1.046       .  S
N1017      H1022   1.045       .  S
N1020      H1023   1.045       .  S
N1020      H1024   1.046   1_455  S
