geometry optimzed in LAMMPS
_audit_creation_date              2020-11-30 
_audit_creation_method            'lammps2cif' 
_symmetry_space_group_name_H-M    'P1' 
_symmetry_Int_Tables_number       1 
_symmetry_cell_setting            triclinic 
loop_ 
_symmetry_equiv_pos_as_xyz 
  x,y,z 
_cell_length_a                    55.94407458 
_cell_length_b                    55.472377358459994 
_cell_length_c                    75.15617562744953 
_cell_angle_alpha                 90.04124171359076 
_cell_angle_beta                  89.8135596812916 
_cell_angle_gamma                 120.18466081294973 
loop_ 
_atom_site_label 
_atom_site_type_symbol 
_atom_site_fract_x 
_atom_site_fract_y 
_atom_site_fract_z 
_atom_site_charge 
O1          O  0.03579048  0.22125554  0.98733995    -0.85000
O2          O  0.05699555  0.19690580  0.00810887    -0.82000
C3          C  0.03936814  0.17094573  0.00925308     0.98500
O4          O  0.03608811  0.15450816  0.99667395    -0.82100
O5          O  0.02902238  0.13657212  0.96186822    -0.84700
C6          C  0.00793757  0.13772125  0.95708669     1.03000
O7          O  0.00884516  0.16082426  0.95662455    -0.77500
O8          O  0.02720269  0.21700583  0.95872143    -0.77700
C9          C  0.02340224  0.22351937  0.97413266     1.03000
O10         O  0.08646323  0.25197212  0.96742147    -0.85000
O11         O  0.10855706  0.22678896  0.98678882    -0.82000
C12         C  0.11355432  0.20855259  0.99249124     0.98500
O13         O  0.09470205  0.18327638  0.99268577    -0.82100
O14         O  0.08762825  0.17137050  0.95621131    -0.84700
C15         C  0.07894905  0.16954052  0.94048242     1.03000
O16         O  0.05835787  0.17259429  0.93733242    -0.77500
O17         O  0.07788495  0.22806897  0.94253210    -0.77600
C18         C  0.09032936  0.25077494  0.95086586     1.02900
Cr19       Cr  0.07111316  0.22191880  0.98627405     1.93700
Cr20       Cr  0.06175508  0.16388893  0.97646798     1.93200
Cr21       Cr  0.04415794  0.19451276  0.95051068     1.39100
O22         O  0.05896962  0.19365334  0.97114126    -1.22700
O23         O  0.27705131  0.46555432  0.85596351    -0.85000
O24         O  0.29807366  0.44117219  0.83519348    -0.82000
C25         C  0.32326472  0.46020556  0.83420075     0.98500
O26         O  0.33951514  0.46512463  0.84703810    -0.82100
O27         O  0.35719842  0.47026352  0.88203283    -0.84700
C28         C  0.35534611  0.49090666  0.88743849     1.03000
O29         O  0.33225866  0.48946233  0.88777392    -0.77500
O30         O  0.27699823  0.47123657  0.88481130    -0.77700
C31         C  0.27495342  0.47828977  0.86912171     1.03000
O32         O  0.24290223  0.41375679  0.87544749    -0.85000
O33         O  0.26782144  0.39044559  0.85609601    -0.82000
C34         C  0.28606474  0.38602694  0.84966690     0.98500
O35         O  0.31119526  0.40525502  0.84969247    -0.82100
O36         O  0.32311583  0.41095923  0.88564228    -0.84700
C37         C  0.32379095  0.41779713  0.90170702     1.03000
O38         O  0.32033796  0.43808076  0.90593255    -0.77500
O39         O  0.26578178  0.41915154  0.90023444    -0.77600
C40         C  0.24345726  0.40813564  0.89176821     1.02900
Cr41       Cr  0.27334086  0.42845856  0.85686600     1.93700
Cr42       Cr  0.33057114  0.43804557  0.86646729     1.93200
Cr43       Cr  0.29902674  0.45351420  0.89310287     1.39100
O44         O  0.30072780  0.43975788  0.87221449    -1.22700
O45         O  0.28105152  0.31873673  0.32121886    -0.85000
O46         O  0.30480679  0.36546220  0.34159054    -0.82000
C47         C  0.33009718  0.37202676  0.34236323     0.98500
O48         O  0.34626247  0.38417518  0.32943544    -0.82100
O49         O  0.36364524  0.39683210  0.29430553    -0.84700
C50         C  0.36270984  0.37459372  0.28928135     1.03000
O51         O  0.34001562  0.35204454  0.28927489    -0.77500
O52         O  0.28440389  0.31383729  0.29247017    -0.77700
C53         C  0.27863499  0.30377447  0.30803912     1.03000
O54         O  0.24958841  0.33759142  0.30155976    -0.85000
O55         O  0.27496633  0.38600301  0.32017437    -0.82000
C56         C  0.29287357  0.40879583  0.32668393     0.98500
O57         O  0.31790378  0.41499394  0.32692393    -0.82100
O58         O  0.32835706  0.42016716  0.29036628    -0.84700
C59         C  0.32891228  0.41342271  0.27436640     1.03000
O60         O  0.32724225  0.39026475  0.27066000    -0.77500
O61         O  0.27285667  0.35418005  0.27665382    -0.77600
C62         C  0.25055683  0.34393414  0.28527399     1.02900
Cr63       Cr  0.27976463  0.35328038  0.31999119     1.93700
Cr64       Cr  0.33690678  0.40169477  0.30991764     1.93200
Cr65       Cr  0.30624226  0.35360074  0.28388425     1.39100
O66         O  0.30747211  0.36920632  0.30462984    -1.22700
O67         O  0.04818376  0.30599659  0.19678796    -0.85000
O68         O  0.03785050  0.33998438  0.17493624    -0.82000
C69         C  0.03247388  0.35906414  0.17139379     0.98500
O70         O  0.04382737  0.38195067  0.17993741    -0.82100
O71         O  0.01991041  0.37559968  0.21278741    -0.84700
C72         C  0.00910735  0.36143894  0.22666287     1.03000
O73         O  0.01969865  0.34909742  0.23457125    -0.77500
O74         O  0.01922745  0.30635286  0.21604244    -0.77700
C75         C  0.02507172  0.29363199  0.20452365     1.03000
O76         O  0.10231152  0.35156759  0.20339342    -0.85000
O77         O  0.09423309  0.38186841  0.17725577    -0.82000
C78         C  0.10793076  0.40564812  0.18409129     0.98500
O79         O  0.09835120  0.41195905  0.19729160    -0.82100
O80         O  0.07307629  0.40577013  0.22917405    -0.84700
C81         C  0.08135116  0.39693526  0.24188556     1.03000
O82         O  0.07666858  0.37216683  0.24229744    -0.77500
O83         O  0.07665144  0.32768419  0.22620321    -0.77600
C84         C  0.09960576  0.33921224  0.21802073     1.02900
Cr85       Cr  0.06972952  0.34597450  0.18962525     1.93700
Cr86       Cr  0.05885914  0.39116192  0.20489582     1.93200
Cr87       Cr  0.04884483  0.34030897  0.22800860     1.39100
O88         O  0.05893516  0.35932224  0.20762281    -1.22700
O89         O  0.30698995  0.04858385  0.14441152    -0.85000
O90         O  0.34044860  0.04017074  0.16776547    -0.82000
C91         C  0.35922587  0.03486219  0.17195625     0.98500
O92         O  0.38185921  0.04529906  0.16333639    -0.82100
O93         O  0.37452268  0.01758517  0.13217417    -0.84700
C94         C  0.36116182  0.00567945  0.11836133     1.03000
O95         O  0.34944269  0.01581842  0.10929108    -0.77500
O96         O  0.30701072  0.01727574  0.12691291    -0.77700
C97         C  0.29456634  0.02444955  0.13780692     1.03000
O98         O  0.35279436  0.10215716  0.13563604    -0.85000
O99         O  0.38260863  0.09613991  0.16307968    -0.82000
C100        C  0.40648988  0.10847271  0.15644636     0.98500
O101        O  0.41215706  0.09787526  0.14353389    -0.82100
O102        O  0.40538518  0.06929142  0.11306957    -0.84700
C103        C  0.39698570  0.07726185  0.09995055     1.03000
O104        O  0.37242577  0.07246120  0.09913031    -0.77500
O105        O  0.32846196  0.07401737  0.11392473    -0.77600
C106        C  0.34075612  0.09810975  0.12079393     1.02900
Cr107      Cr  0.34673812  0.07076039  0.15129440     1.93700
Cr108      Cr  0.39086642  0.05756860  0.13780082     1.93200
Cr109      Cr  0.34072893  0.04575301  0.11405394     1.39100
O110        O  0.35959295  0.05781419  0.13430575    -1.22700
O111        O  0.32144255  0.28592195  0.01679468    -0.85000
O112        O  0.36929005  0.31216111  0.99849905    -0.82000
C113        C  0.37549843  0.33750816  0.99972120     0.98500
O114        O  0.38600593  0.35114790  0.01377688    -0.82100
O115        O  0.39151227  0.36163679  0.04967197    -0.84700
C116        C  0.36803193  0.35835602  0.05364165     1.03000
O117        O  0.34664380  0.33484092  0.05213997    -0.77500
O118        O  0.31185223  0.27879608  0.04514909    -0.77700
C119        C  0.30452043  0.27946341  0.02932693     1.03000
O120        O  0.33811016  0.24907763  0.03443853    -0.85000
O121        O  0.38734146  0.27845297  0.01722946    -0.82000
C122        C  0.41131097  0.29813153  0.01406665     0.98500
O123        O  0.41756025  0.32320551  0.01636285    -0.82100
O124        O  0.41701358  0.32786504  0.05273684    -0.84700
C125        C  0.40835071  0.32593535  0.06847061     1.03000
O126        O  0.38432992  0.32227491  0.07134344    -0.77500
O127        O  0.35297640  0.26885334  0.06053127    -0.77600
C128        C  0.34418856  0.24789101  0.05061498     1.02900
Cr129      Cr  0.35496330  0.28310987  0.01806809     1.93700
Cr130      Cr  0.40077276  0.33875158  0.03320660     1.93200
Cr131      Cr  0.35015857  0.30164099  0.05575521     1.39100
O132        O  0.36867298  0.30764477  0.03562127    -1.22700
O133        O  0.21391203  0.18288060  0.81878782    -0.85000
O134        O  0.19325148  0.13723040  0.83998057    -0.82000
C135        C  0.16782041  0.12993680  0.84130240     0.98500
O136        O  0.15151851  0.11802312  0.82847354    -0.82100
O137        O  0.13304871  0.10413465  0.79358524    -0.84700
C138        C  0.13398982  0.12625600  0.78826918     1.03000
O139        O  0.15680591  0.14864225  0.78739488    -0.77500
O140        O  0.21256185  0.18741366  0.78987741    -0.77700
C141        C  0.21595027  0.19738587  0.80544753     1.03000
O142        O  0.24756519  0.16559573  0.79898203    -0.85000
O143        O  0.22353225  0.11739529  0.81850097    -0.82000
C144        C  0.20582138  0.09464465  0.82532828     0.98500
O145        O  0.18063718  0.08800772  0.82572728    -0.82100
O146        O  0.16812661  0.08051192  0.78968648    -0.84700
C147        C  0.16712506  0.08648627  0.77361059     1.03000
O148        O  0.16951508  0.10983726  0.76946865    -0.77500
O149        O  0.22392075  0.14631926  0.77470773    -0.77600
C150        C  0.24652579  0.15807465  0.78290405     1.02900
Cr151      Cr  0.21755490  0.14948533  0.81792468     1.93700
Cr152      Cr  0.16047950  0.10004862  0.80896120     1.93200
Cr153      Cr  0.19061616  0.14708221  0.78195548     1.39100
O154        O  0.18969336  0.13234157  0.80293543    -1.22700
O155        O  0.44435680  0.18441134  0.69361118    -0.85000
O156        O  0.45140602  0.14900451  0.67118836    -0.82000
C157        C  0.45571819  0.12945344  0.66705846     0.98500
O158        O  0.44526517  0.10695542  0.67604916    -0.82100
O159        O  0.47204140  0.11530950  0.70790005    -0.84700
C160        C  0.48262880  0.12796124  0.72221696     1.03000
O161        O  0.47168557  0.13938590  0.73094381    -0.77500
O162        O  0.47359097  0.18277722  0.71206050    -0.77700
C163        C  0.46774381  0.19602135  0.70100210     1.03000
O164        O  0.38973926  0.13995312  0.70158149    -0.85000
O165        O  0.39537333  0.10773358  0.67555403    -0.82000
C166        C  0.38208749  0.08434438  0.68303780     0.98500
O167        O  0.39252371  0.07850838  0.69590335    -0.82100
O168        O  0.42020826  0.08581218  0.72668788    -0.84700
C169        C  0.41090080  0.09461013  0.73892463     1.03000
O170        O  0.41498481  0.11911429  0.73878264    -0.77500
O171        O  0.41714084  0.16473473  0.72334852    -0.77600
C172        C  0.39378914  0.15371744  0.71574055     1.02900
Cr173      Cr  0.42110804  0.14420628  0.68691536     1.93700
Cr174      Cr  0.43247324  0.09915471  0.70172097     1.93200
Cr175      Cr  0.44362131  0.15012171  0.72461653     1.39100
O176        O  0.43260961  0.13101947  0.70444772    -1.22700
O177        O  0.46154730  0.27997623  0.48833463    -0.85000
O178        O  0.43739765  0.30298297  0.50734298    -0.82000
C179        C  0.45725044  0.32794262  0.50745431     0.98500
O180        O  0.46214722  0.34330736  0.49399369    -0.82100
O181        O  0.46869179  0.35812033  0.45873099    -0.84700
C182        C  0.48885247  0.35499113  0.45440579     1.03000
O183        O  0.48635177  0.33120914  0.45457563    -0.77500
O184        O  0.46581116  0.27530035  0.45979359    -0.77700
C185        C  0.47339413  0.27550908  0.47566083     1.03000
O186        O  0.41020966  0.24430323  0.46932239    -0.85000
O187        O  0.38780001  0.27154819  0.48651243    -0.82000
C188        C  0.38376291  0.29081238  0.49156868     0.98500
O189        O  0.40289587  0.31602250  0.49054444    -0.82100
O190        O  0.40988477  0.32562487  0.45415397    -0.84700
C191        C  0.41753083  0.32508950  0.43840155     1.03000
O192        O  0.43701058  0.32011763  0.43538718    -0.77500
O193        O  0.41510176  0.26510121  0.44358600    -0.77600
C194        C  0.40367849  0.24353892  0.45309207     1.02900
Cr195      Cr  0.42500696  0.27643795  0.48662856     1.93700
Cr196      Cr  0.43585880  0.33351610  0.47413718     1.93200
Cr197      Cr  0.45011238  0.29825977  0.44982140     1.39100
O198        O  0.43663990  0.30251194  0.47011015    -1.22700
O199        O  0.21439763  0.03437355  0.35438472    -0.85000
O200        O  0.19148983  0.05887462  0.33494274    -0.82000
C201        C  0.16654367  0.03935714  0.33518480     0.98500
O202        O  0.15175421  0.03503353  0.34883500    -0.82100
O203        O  0.13773220  0.03025865  0.38425317    -0.84700
C204        C  0.13986611  0.00985778  0.38968601     1.03000
O205        O  0.16298509  0.01110548  0.38943189    -0.77500
O206        O  0.21885384  0.03112522  0.38309468    -0.77700
C207        C  0.21950140  0.02348636  0.36735421     1.03000
O208        O  0.25055695  0.08679117  0.37235615    -0.85000
O209        O  0.22407219  0.10948272  0.35454220    -0.82000
C210        C  0.20506742  0.11411584  0.35022756     0.98500
O211        O  0.17993260  0.09537277  0.35185477    -0.82100
O212        O  0.17083214  0.08928187  0.38822438    -0.84700
C213        C  0.17183538  0.08207962  0.40402873     1.03000
O214        O  0.17644170  0.06232677  0.40713733    -0.77500
O215        O  0.23038837  0.08314815  0.39814845    -0.77600
C216        C  0.25169753  0.09389703  0.38852103     1.02900
Cr217      Cr  0.21825300  0.07154899  0.35539435     1.93700
Cr218      Cr  0.16232200  0.06241682  0.36842596     1.93200
Cr219      Cr  0.19686967  0.04784423  0.39281201     1.39100
O220        O  0.19267770  0.06088696  0.37227260    -1.22700
O221        O  0.17853569  0.46479066  0.65508635    -0.85000
O222        O  0.13034695  0.44248569  0.67350513    -0.82000
C223        C  0.12338815  0.46100918  0.67256531     0.98500
O224        O  0.11225017  0.46355916  0.65867134    -0.82100
O225        O  0.10510300  0.46774879  0.62288758    -0.84700
C226        C  0.12758456  0.48867004  0.61790915     1.03000
O227        O  0.14988495  0.48839198  0.61905423    -0.77500
O228        O  0.18706435  0.47051310  0.62645559    -0.77700
C229        C  0.19518240  0.47598351  0.64240817     1.03000
O230        O  0.16196425  0.41249300  0.63743289    -0.85000
O231        O  0.11264496  0.39039511  0.65418028    -0.82000
C232        C  0.08862844  0.38503613  0.65795336     0.98500
O233        O  0.08197265  0.40354663  0.65614442    -0.82100
O234        O  0.08158257  0.40883480  0.61941000    -0.84700
C235        C  0.09029488  0.41619832  0.60369042     1.03000
O236        O  0.11444532  0.43660247  0.60085950    -0.77500
O237        O  0.14909768  0.41802015  0.61081715    -0.77600
C238        C  0.15799051  0.40638928  0.62104546     1.02900
Cr239      Cr  0.14467712  0.42836312  0.65367623     1.93700
Cr240      Cr  0.09774541  0.43608649  0.63917075     1.93200
Cr241      Cr  0.14879266  0.45245637  0.61598416     1.39100
O242        O  0.13055182  0.43893133  0.63628543    -1.22700
O243        O  0.18384777  0.22074138  0.52282245    -0.85000
O244        O  0.13762636  0.19797698  0.50240692    -0.82000
C245        C  0.13207125  0.17283422  0.50183719     0.98500
O246        O  0.12142444  0.15706464  0.51510457    -0.82100
O247        O  0.11093204  0.14054824  0.54988875    -0.84700
C248        C  0.13387070  0.14328941  0.55456866     1.03000
O249        O  0.15506107  0.16709972  0.55552440    -0.77500
O250        O  0.18990959  0.22357826  0.55172036    -0.77700
C251        C  0.19898021  0.22503023  0.53611447     1.03000
O252        O  0.16623726  0.25466122  0.54176512    -0.85000
O253        O  0.11769328  0.22811958  0.52357423    -0.82000
C254        C  0.09486485  0.20909201  0.51785459     0.98500
O255        O  0.08912950  0.18395608  0.51813237    -0.82100
O256        O  0.08402859  0.17254355  0.55449757    -0.84700
C257        C  0.09096371  0.17170296  0.57036518     1.03000
O258        O  0.11518717  0.17667684  0.57389048    -0.77500
O259        O  0.14793587  0.23247230  0.56680952    -0.77600
C260        C  0.15905796  0.25461840  0.55779123     1.02900
Cr261      Cr  0.15025479  0.22349124  0.52380114     1.93700
Cr262      Cr  0.10355406  0.16578524  0.53471506     1.93200
Cr263      Cr  0.15088659  0.19973599  0.56046810     1.39100
O264        O  0.13488052  0.19649407  0.53970431    -1.22700
C265        C  0.11225505  0.03933432  0.59275889     0.16300
C266        C  0.10075136  0.05316103  0.58387250    -0.32700
C267        C  0.11882211  0.07758601  0.57469462     0.20700
C268        C  0.14709307  0.08770489  0.57413748     0.02900
C269        C  0.15852240  0.07336864  0.58259412    -0.22500
C270        C  0.14046360  0.04915624  0.59206747     0.12100
S271        S  0.09386022  0.01008314  0.60526304    -0.06100
C272        C  0.12447517  0.01097528  0.60961433    -0.09600
C273        C  0.14762562  0.03286514  0.60171430    -0.26200
S274        S  0.16575248  0.11940106  0.56400582    -0.03400
C275        C  0.13507656  0.11890776  0.56066425    -0.16800
C276        C  0.11176475  0.09514174  0.56667322    -0.14800
H277        H  0.07876155  0.04569423  0.58455938     0.20500
H278        H  0.18060942  0.08128211  0.58235803     0.16600
H279        H  0.16844039  0.03631963  0.60267050     0.19100
H280        H  0.09094821  0.09181508  0.56635317     0.12400
C281        C  0.16364255  0.34335500  0.60679362     0.16300
C282        C  0.16112226  0.31702628  0.60538624    -0.32700
C283        C  0.16394077  0.30821361  0.58842999     0.20700
C284        C  0.16971194  0.32505628  0.57355103     0.02900
C285        C  0.17230462  0.35144303  0.57495867    -0.22500
C286        C  0.16876766  0.35995833  0.59185910     0.12100
S287        S  0.15902725  0.35703905  0.62598689    -0.06100
C288        C  0.16324106  0.38502330  0.61365010    -0.09600
C289        C  0.16845385  0.38387973  0.59571584    -0.26200
S290        S  0.17156471  0.31007949  0.55410689    -0.03400
C291        C  0.16377350  0.28059108  0.56614174    -0.16800
C292        C  0.16046814  0.28268005  0.58425154    -0.14800
H293        H  0.15637617  0.30365670  0.61691882     0.20500
H294        H  0.17609742  0.36441218  0.56332640     0.16600
H295        H  0.17098266  0.39932546  0.58592822     0.19100
H296        H  0.15517577  0.26612999  0.59381726     0.12400
C297        C  0.15620401  0.10690699  0.44774960     0.16300
C298        C  0.15010000  0.10961173  0.46542559    -0.32700
C299        C  0.14619829  0.13195402  0.46962290     0.20700
C300        C  0.14859339  0.15110758  0.45687381     0.02900
C301        C  0.15451027  0.14826246  0.43905315    -0.22500
C302        C  0.15813222  0.12560421  0.43478656     0.12100
S303        S  0.16162274  0.08112369  0.44024742    -0.06100
C304        C  0.16625521  0.09524441  0.41925916    -0.09600
C305        C  0.16377922  0.11890085  0.41826972    -0.26200
S306        S  0.14378886  0.17720813  0.46504783    -0.03400
C307        C  0.13796944  0.16164781  0.48570089    -0.16800
C308        C  0.13994541  0.13775972  0.48608372    -0.14800
H309        H  0.14842010  0.09486821  0.47549631     0.20500
H310        H  0.15621196  0.16301176  0.42899124     0.16600
H311        H  0.16602775  0.13051335  0.40619751     0.19100
H312        H  0.13729783  0.12544101  0.49788826     0.12400
C313        C  0.49924637  0.34727793  0.55075391     0.16300
C314        C  0.51009858  0.34823281  0.56772723    -0.32700
C315        C  0.03372947  0.37116235  0.57309580     0.20700
C316        C  0.04940188  0.39060145  0.56014859     0.02900
C317        C  0.03957126  0.38818782  0.54275800    -0.22500
C318        C  0.01340835  0.36548781  0.53888162     0.12100
S319        S  0.46977462  0.31974620  0.54234148    -0.06100
C320        C  0.47501930  0.33903472  0.52324086    -0.09600
C321        C  0.00019636  0.36012477  0.52283022    -0.26200
S322        S  0.08028742  0.41718898  0.56745855    -0.03400
C323        C  0.07199991  0.40245149  0.58836109    -0.16800
C324        C  0.04658901  0.37793018  0.58940575    -0.14800
H325        H  0.49982707  0.33084707  0.57686173     0.20500
H326        H  0.05167071  0.40357839  0.53271471     0.16600
H327        H  0.00886512  0.37302745  0.51110052     0.19100
H328        H  0.03789320  0.36591869  0.60145543     0.12400
C329        C  0.05636128  0.40575605  0.43231012     0.16300
C330        C  0.08192312  0.41953586  0.42347249    -0.32700
C331        C  0.08856762  0.44411457  0.41424755     0.20700
C332        C  0.07055090  0.45443131  0.41384783     0.02900
C333        C  0.04524775  0.44090664  0.42286572    -0.22500
C334        C  0.03866209  0.41645437  0.43210342     0.12100
S335        S  0.04343573  0.37462165  0.44316873    -0.06100
C336        C  0.01396741  0.37620668  0.44744190    -0.09600
C337        C  0.01450998  0.39982599  0.44099086    -0.26200
S338        S  0.08227843  0.48451620  0.40210894    -0.03400
C339        C  0.11209468  0.48361851  0.39790437    -0.16800
C340        C  0.11256090  0.46084169  0.40508426    -0.14800
H341        H  0.09585216  0.41131745  0.42361509     0.20500
H342        H  0.03120328  0.44898710  0.42258459     0.16600
H343        H  0.49984138  0.40816964  0.44364957     0.19100
H344        H  0.12983396  0.45723285  0.40415659     0.12400
C345        C  0.34152306  0.17508796  0.43765654     0.16300
C346        C  0.31583155  0.15069814  0.43612608    -0.32700
C347        C  0.30630761  0.14068333  0.41896056     0.20700
C348        C  0.32184132  0.15385873  0.40392294     0.02900
C349        C  0.34760457  0.17827847  0.40545041    -0.22500
C350        C  0.35683639  0.18868970  0.42262782     0.12100
S351        S  0.35588061  0.19153753  0.45726272    -0.06100
C352        C  0.38240552  0.21741739  0.44504741    -0.09600
C353        C  0.38030596  0.21308016  0.42680255    -0.26200
S354        S  0.30602701  0.13864511  0.38428269    -0.03400
C355        C  0.27797238  0.11479447  0.39653354    -0.16800
C356        C  0.28116193  0.11834997  0.41479787    -0.14800
H357        H  0.30343782  0.14038883  0.44778985     0.20500
H358        H  0.35956806  0.18911514  0.39375706     0.16600
H359        H  0.39479674  0.22745493  0.41707782     0.19100
H360        H  0.26555062  0.10562826  0.42454706     0.12400
C361        C  0.04257813  0.22149380  0.49295969     0.16300
C362        C  0.02229826  0.22065137  0.48164962    -0.32700
C363        C  0.01631158  0.24227286  0.48313524     0.20700
C364        C  0.02985697  0.26363685  0.49539925     0.02900
C365        C  0.05053433  0.26483839  0.50635535    -0.22500
C366        C  0.05653584  0.24333888  0.50482637     0.12100
S367        S  0.05216998  0.19676674  0.49383508    -0.06100
C368        C  0.07551565  0.21650009  0.51007074    -0.09600
C369        C  0.07565021  0.24072914  0.51455325    -0.26200
S370        S  0.51948856  0.28967993  0.49614889    -0.03400
C371        C  0.49591161  0.27037375  0.47993999    -0.16800
C372        C  0.99622075  0.24443871  0.47409155    -0.14800
H373        H  0.01129217  0.20362998  0.47238565     0.20500
H374        H  0.06103576  0.28146426  0.51595634     0.16600
H375        H  0.08894919  0.25556010  0.52447759     0.19100
H376        H  0.98232780  0.22945882  0.46445150     0.12400
C377        C  0.31812670  0.28163959  0.51386197     0.16300
C378        C  0.29738535  0.28490946  0.52199741    -0.32700
C379        C  0.27222926  0.26067012  0.52577818     0.20700
C380        C  0.26798546  0.23436133  0.52177965     0.02900
C381        C  0.28882698  0.23110015  0.51390453    -0.22500
C382        C  0.31380592  0.25530160  0.50995379     0.12100
S383        S  0.34977791  0.30835431  0.50754565    -0.06100
C384        C  0.35706859  0.28365974  0.49952950    -0.09600
C385        C  0.33606427  0.25632782  0.50174553    -0.26200
S386        S  0.23535129  0.20769175  0.52589494    -0.03400
C387        C  0.22746652  0.23222326  0.53314519    -0.16800
C388        C  0.24892428  0.25952577  0.53247302    -0.14800
H389        H  0.30047193  0.30541488  0.52485684     0.20500
H390        H  0.28545482  0.21063569  0.51054169     0.16600
H391        H  0.33703010  0.23813957  0.49757286     0.19100
H392        H  0.24706153  0.27755071  0.53568037     0.12400
C393        C  0.49644143  0.14602865  0.62328745     0.16300
C394        C  0.50712746  0.15471330  0.60605752    -0.32700
C395        C  0.03293754  0.15699278  0.60031181     0.20700
C396        C  0.04402205  0.14532078  0.61154680     0.02900
C397        C  0.03173582  0.13392259  0.62802511    -0.22500
C398        C  0.00838257  0.13548596  0.63298667     0.12100
S399        S  0.46643627  0.14329126  0.63106060    -0.06100
C400        C  0.47279635  0.13302423  0.65127089    -0.09600
C401        C  0.99435255  0.12673056  0.64884816    -0.26200
S402        S  0.07345983  0.14700723  0.60371908    -0.03400
C403        C  0.07059723  0.16308895  0.58490734    -0.16800
C404        C  0.04790342  0.16687787  0.58481743    -0.14800
H405        H  0.49598443  0.15948721  0.59624187     0.20500
H406        H  0.04040110  0.12481567  0.63678473     0.16600
H407        H  0.99959281  0.11705954  0.65948330     0.19100
H408        H  0.04301832  0.17687009  0.57420361     0.12400
C409        C  0.02932171  0.26727972  0.68755849     0.16300
C410        C  0.05460183  0.29045352  0.68255754    -0.32700
C411        C  0.05414756  0.31387177  0.67594570     0.20700
C412        C  0.02971484  0.31441000  0.67451926     0.02900
C413        C  0.50175018  0.29211023  0.67992398    -0.22500
C414        C  0.00481342  0.26757934  0.68572146     0.12100
S415        S  0.02534422  0.23674604  0.69584275    -0.06100
C416        C  0.48766321  0.22515690  0.69682855    -0.09600
C417        C  0.47961781  0.24355825  0.69074444    -0.26200
S418        S  0.03373355  0.34511327  0.66654376    -0.03400
C419        C  0.06866233  0.35717293  0.66485596    -0.16800
C420        C  0.07650890  0.33825560  0.67029001    -0.14800
H421        H  0.07378447  0.29022884  0.68372562     0.20500
H422        H  0.48247643  0.29184020  0.67777937     0.16600
H423        H  0.45837359  0.23860526  0.68919707     0.19100
H424        H  0.09754443  0.34219921  0.67018104     0.12400
C425        C  0.30673549  0.02913438  0.67396877     0.16300
C426        C  0.27923775  0.00751733  0.67517079    -0.32700
C427        C  0.26080861  0.00641539  0.66217802     0.20700
C428        C  0.26935539  0.02552169  0.64833135     0.02900
C429        C  0.29685014  0.04724528  0.64718616    -0.22500
C430        C  0.31519283  0.04867247  0.66038394     0.12100
S431        S  0.33202790  0.03485865  0.68887084    -0.06100
C432        C  0.35408423  0.06426039  0.67688745    -0.09600
C433        C  0.34235733  0.06889521  0.66200327    -0.26200
S434        S  0.24376985  0.02001376  0.63366276    -0.03400
C435        C  0.22461307  0.49429000  0.64654202    -0.16800
C436        C  0.23576304  0.49236962  0.66255515    -0.14800
H437        H  0.27240279  0.99245090  0.68591400     0.20500
H438        H  0.30358977  0.06254777  0.63659172     0.16600
H439        H  0.35294505  0.08658707  0.65311652     0.19100
H440        H  0.22413368  0.47801558  0.67320485     0.12400
C441        C  0.15381743  0.02679045  0.74146647     0.16300
C442        C  0.14965608  0.00224226  0.73312675    -0.32700
C443        C  0.14110436  0.99799524  0.71523883     0.20700
C444        C  0.13696033  0.01737271  0.70619223     0.02900
C445        C  0.14157399  0.04197134  0.71439200    -0.22500
C446        C  0.15004268  0.04618846  0.73216036     0.12100
S447        S  0.16299761  0.03561431  0.76324692    -0.06100
C448        C  0.16185799  0.06576635  0.75959388    -0.09600
C449        C  0.15484533  0.06859878  0.74238975    -0.26200
S450        S  0.12273161  0.50791299  0.68525416    -0.03400
C451        C  0.12862779  0.48041424  0.68750893    -0.16800
C452        C  0.14037663  0.47987094  0.70368513    -0.14800
H453        H  0.15262527  0.98703533  0.74029834     0.20500
H454        H  0.13838088  0.05707352  0.70726168     0.16600
H455        H  0.15278964  0.08591807  0.73768556     0.19100
H456        H  0.14587971  0.46442895  0.70738830     0.12400
C457        C  0.03849435  0.11126492  0.74266709     0.16300
C458        C  0.05449314  0.09969664  0.74832993    -0.32700
C459        C  0.07332828  0.11312445  0.76226091     0.20700
C460        C  0.07617695  0.13705206  0.77013463     0.02900
C461        C  0.05963954  0.14809917  0.76483264    -0.22500
C462        C  0.04085217  0.13470040  0.75094441     0.12100
S463        S  0.01490012  0.09868414  0.72570993    -0.06100
C464        C  0.00782499  0.12500326  0.73008000    -0.09600
C465        C  0.02319866  0.14250195  0.74389773    -0.26200
S466        S  0.10222680  0.15206327  0.78538790    -0.03400
C467        C  0.10906961  0.12556641  0.78140906    -0.16800
C468        C  0.09184495  0.10610903  0.76896464    -0.14800
H469        H  0.05271791  0.08135784  0.74194194     0.20500
H470        H  0.06178517  0.16674930  0.77098771     0.16600
H471        H  0.02119705  0.15980052  0.74875191     0.19100
H472        H  0.09400457  0.08884686  0.76422927     0.12400
C473        C  0.31617977  0.17210789  0.76318088     0.16300
C474        C  0.34352693  0.17850073  0.76005752    -0.32700
C475        C  0.34907998  0.16860966  0.74423964     0.20700
C476        C  0.32846112  0.15350477  0.73192706     0.02900
C477        C  0.30132459  0.14763081  0.73487300    -0.22500
C478        C  0.29569443  0.15705484  0.75079473     0.12100
S479        S  0.30445593  0.18002851  0.78217561    -0.06100
C480        C  0.27160782  0.16268038  0.77331779    -0.09600
C481        C  0.27025769  0.15180326  0.75645981    -0.26200
S482        S  0.33884969  0.14177660  0.71415568    -0.03400
C483        C  0.37134096  0.15709009  0.72344300    -0.16800
C484        C  0.37381808  0.17091066  0.73936301    -0.14800
H485        H  0.35958266  0.18987700  0.76979546     0.20500
H486        H  0.28506859  0.13542072  0.72541863     0.16600
H487        H  0.25139331  0.13982670  0.74891824     0.19100
H488        H  0.39248050  0.18124010  0.74727494     0.12400
C489        C  0.37860691  0.45086331  0.10109097     0.16300
C490        C  0.39101633  0.43603887  0.09472745    -0.32700
C491        C  0.37689967  0.41588998  0.08159112     0.20700
C492        C  0.35123092  0.41015848  0.07539298     0.02900
C493        C  0.33892303  0.42509672  0.08166129    -0.22500
C494        C  0.35333505  0.44568251  0.09448059     0.12100
S495        S  0.39315812  0.47743516  0.11616314    -0.06100
C496        C  0.36535323  0.48219026  0.11298080    -0.09600
C497        C  0.34563037  0.46358685  0.10126871    -0.26200
S498        S  0.33673507  0.38380081  0.06020987    -0.03400
C499        C  0.36590195  0.38101723  0.06193279    -0.16800
C500        C  0.38562420  0.39946966  0.07368264    -0.14800
H501        H  0.41098292  0.44031170  0.09959475     0.20500
H502        H  0.31911717  0.42106521  0.07662798     0.16600
H503        H  0.32728034  0.46405990  0.09725856     0.19100
H504        H  0.40472063  0.39991786  0.07687259     0.12400
C505        C  0.34747200  0.16491374  0.10114807     0.16300
C506        C  0.35306058  0.19203396  0.09802748    -0.32700
C507        C  0.34632919  0.19796084  0.08132271     0.20700
C508        C  0.33473646  0.17806145  0.06804228     0.02900
C509        C  0.32911346  0.15069045  0.07116333    -0.22500
C510        C  0.33565168  0.14463418  0.08807236     0.12100
S511        S  0.35436003  0.15392879  0.12064796    -0.06100
C512        C  0.34090701  0.12139306  0.11131336    -0.09600
C513        C  0.33176193  0.11946427  0.09388662    -0.26200
S514        S  0.32845923  0.19036299  0.04861896    -0.03400
C515        C  0.34139694  0.22241251  0.05881308    -0.16800
C516        C  0.35012569  0.22311043  0.07615204    -0.14800
H517        H  0.36223570  0.20790472  0.10823660     0.20500
H518        H  0.32000215  0.13484749  0.06094412     0.16600
H519        H  0.32310285  0.10075285  0.08583749     0.19100
H520        H  0.35902189  0.24132954  0.08467808     0.12400
C521        C  0.47449336  0.35103902  0.13711438     0.16300
C522        C  0.45235278  0.35108596  0.12834153    -0.32700
C523        C  0.44625475  0.34047912  0.11092060     0.20700
C524        C  0.46175625  0.33057419  0.10256563     0.02900
C525        C  0.48341780  0.32987679  0.11149279    -0.22500
C526        C  0.48931119  0.34017949  0.12896752     0.12100
S527        S  0.99284658  0.37061181  0.15753120    -0.06100
C528        C  0.01275016  0.35491402  0.15707415    -0.09600
C529        C  0.50980363  0.34158403  0.13975903    -0.26200
S530        S  0.45235198  0.32032897  0.08104170    -0.03400
C531        C  0.42676301  0.32877954  0.08337601    -0.16800
C532        C  0.42583648  0.33911764  0.10004716    -0.14800
H533        H  0.44062396  0.35936515  0.13473433     0.20500
H534        H  0.49539912  0.32196560  0.10500655     0.16600
H535        H  0.52381349  0.33430092  0.13603068     0.19100
H536        H  0.41149786  0.34596128  0.10383290     0.12400
C537        C  0.46695454  0.17922215  0.17107018     0.16300
C538        C  0.49183226  0.20457045  0.17264080    -0.32700
C539        C  0.49249495  0.22434960  0.18457893     0.20700
C540        C  0.46964335  0.21904058  0.19476760     0.02900
C541        C  0.44492404  0.19351143  0.19341805    -0.22500
C542        C  0.44410419  0.17392824  0.18125791     0.12100
S543        S  0.46118061  0.15328366  0.15639906    -0.06100
C544        C  0.42755364  0.13526374  0.16400136    -0.09600
C545        C  0.42151837  0.14867773  0.17733899    -0.26200
S546        S  0.47426376  0.24636626  0.20776270    -0.03400
C547        C  0.00555618  0.26436700  0.19988050    -0.16800
C548        C  0.01214398  0.25009480  0.18746129    -0.14800
H549        H  0.50964130  0.20901968  0.16452897     0.20500
H550        H  0.42685491  0.18939540  0.20112980     0.16600
H551        H  0.40139760  0.14070368  0.18351140     0.19100
H552        H  0.03184865  0.25860850  0.18063903     0.12400
C553        C  0.22068852  0.46435812  0.14799646     0.16300
C554        C  0.19552194  0.43934152  0.15029426    -0.32700
C555        C  0.17517154  0.43997362  0.16099751     0.20700
C556        C  0.17961946  0.46436496  0.16907151     0.02900
C557        C  0.20463305  0.48937379  0.16664365    -0.22500
C558        C  0.22495850  0.48872507  0.15599509     0.12100
S559        S  0.24851361  0.46804705  0.13603137    -0.06100
C560        C  0.26548772  0.00534671  0.14286588    -0.09600
C561        C  0.25126515  0.01326263  0.15443167    -0.26200
S562        S  0.15283066  0.46054839  0.18215009    -0.03400
C563        C  0.13527314  0.42571154  0.17659909    -0.16800
C564        C  0.14967477  0.41777121  0.16517498    -0.14800
H565        H  0.19207042  0.42015718  0.14419408     0.20500
H566        H  0.20971709  0.01118201  0.17589425     0.16600
H567        H  0.25979530  0.03371552  0.16042082     0.19100
H568        H  0.14214026  0.39667804  0.16052117     0.12400
C569        C  0.10889831  0.43854212  0.28506178     0.16300
C570        C  0.11279324  0.44785077  0.30272633    -0.32700
C571        C  0.12923148  0.47660995  0.30574734     0.20700
C572        C  0.14197818  0.49527494  0.29186551     0.02900
C573        C  0.13775835  0.48600616  0.27415629    -0.22500
C574        C  0.12064116  0.45729064  0.27110388     0.12100
S575        S  0.08898026  0.40455144  0.27861441    -0.06100
C576        C  0.09563393  0.41578898  0.25686818    -0.09600
C577        C  0.11283777  0.44435600  0.25485973    -0.26200
S578        S  0.16120090  0.03355573  0.29804591    -0.03400
C579        C  0.15486660  0.02123910  0.31958492    -0.16800
C580        C  0.13874006  0.99254672  0.32109805    -0.14800
H581        H  0.10315763  0.43333835  0.31363476     0.20500
H582        H  0.14717120  0.50055007  0.26323819     0.16600
H583        H  0.11885072  0.45510243  0.24218459     0.19100
H584        H  0.13315924  0.98121799  0.33357465     0.12400
C585        C  0.34973224  0.35071246  0.38643427     0.16300
C586        C  0.35109481  0.34152393  0.40365404    -0.32700
C587        C  0.37463868  0.33978020  0.40802463     0.20700
C588        C  0.39561618  0.34657854  0.39571515     0.02900
C589        C  0.39438923  0.35601824  0.37867433    -0.22500
C590        C  0.37112462  0.35803950  0.37438950     0.12100
S591        S  0.32282928  0.35372353  0.37813311    -0.06100
C592        C  0.34095397  0.36539164  0.35837889    -0.09600
C593        C  0.36632904  0.36664160  0.35841547    -0.26200
S594        S  0.42211696  0.34254318  0.40319687    -0.03400
C595        C  0.40522213  0.33201638  0.42333527    -0.16800
C596        C  0.38016599  0.33158966  0.42404391    -0.14800
H597        H  0.33455011  0.33591857  0.41317727     0.20500
H598        H  0.41087771  0.36149636  0.36911845     0.16600
H599        H  0.38035608  0.37297083  0.34716029     0.19100
H600        H  0.36674694  0.32554411  0.43559389     0.12400
C601        C  0.35223888  0.98014726  0.20598610     0.16300
C602        C  0.35936132  0.46241031  0.21638565    -0.32700
C603        C  0.34622661  0.45424556  0.23301199     0.20700
C604        C  0.33148453  0.46604482  0.23999462     0.02900
C605        C  0.32833620  0.48587890  0.23025137    -0.22500
C606        C  0.34117969  0.49378482  0.21347944     0.12100
S607        S  0.36489002  0.99110058  0.18504111    -0.06100
C608        C  0.35493074  0.01574778  0.18680415    -0.09600
C609        C  0.34065474  0.51278813  0.20196476    -0.26200
S610        S  0.31837537  0.45432375  0.26083898    -0.03400
C611        C  0.33230072  0.43280641  0.25989649    -0.16800
C612        C  0.34639793  0.43485301  0.24425051    -0.14800
H613        H  0.36026024  0.94590783  0.20841639     0.20500
H614        H  0.31656514  0.49490552  0.23556894     0.16600
H615        H  0.32965317  0.52389935  0.20441935     0.19100
H616        H  0.35659889  0.42306424  0.24138185     0.12400
C617        C  0.42539283  0.38517748  0.26238875     0.16300
C618        C  0.44714733  0.39424355  0.25009538    -0.32700
C619        C  0.45695622  0.37604552  0.24609443     0.20700
C620        C  0.44604310  0.35023221  0.25430820     0.02900
C621        C  0.42400650  0.34098550  0.26641067    -0.22500
C622        C  0.41377197  0.35893685  0.27009670     0.12100
S623        S  0.41014814  0.40389170  0.26861290    -0.06100
C624        C  0.38724514  0.37573331  0.28125534    -0.09600
C625        C  0.39164330  0.35327067  0.28082641    -0.26200
S626        S  0.46218885  0.33213785  0.24866153    -0.03400
C627        C  0.48337043  0.35929394  0.23470222    -0.16800
C628        C  0.47811842  0.38118354  0.23460112    -0.14800
H629        H  0.45595282  0.41455106  0.24385358     0.20500
H630        H  0.41519175  0.32067218  0.27264702     0.16600
H631        H  0.37888698  0.33362652  0.28761166     0.19100
H632        H  0.49008044  0.40041346  0.22723179     0.12400
C633        C  0.18086450  0.32992809  0.26659392     0.16300
C634        C  0.15336556  0.32290681  0.26375524    -0.32700
C635        C  0.14698220  0.33065099  0.24745829     0.20700
C636        C  0.16697831  0.34463467  0.23450136     0.02900
C637        C  0.19438969  0.35137692  0.23726179    -0.22500
C638        C  0.20079149  0.34375583  0.25357690     0.12100
S639        S  0.19320651  0.32352585  0.28574355    -0.06100
C640        C  0.22552771  0.33958003  0.27603699    -0.09600
C641        C  0.22637873  0.34922703  0.25888837    -0.26200
S642        S  0.15529880  0.35340076  0.21600631    -0.03400
C643        C  0.12311861  0.33812122  0.22585965    -0.16800
C644        C  0.12174670  0.32670472  0.24251964    -0.14800
H645        H  0.13772355  0.31231206  0.27392033     0.20500
H646        H  0.21015822  0.36252103  0.22725463     0.16600
H647        H  0.24490912  0.36018754  0.25082518     0.19100
H648        H  0.10341885  0.31679503  0.25083908     0.12400
C649        C  0.21815352  0.18588505  0.33615926     0.16300
C650        C  0.21903520  0.21146152  0.33484762    -0.32700
C651        C  0.23991042  0.23218792  0.32427870     0.20700
C652        C  0.25859960  0.22752278  0.31489792     0.02900
C653        C  0.25786598  0.20196172  0.31633184    -0.22500
C654        C  0.23751779  0.18150957  0.32740097     0.12100
S655        S  0.19501323  0.15846043  0.34885784    -0.06100
C656        C  0.21229799  0.14138210  0.34287460    -0.09600
C657        C  0.23442590  0.15602221  0.33138929    -0.26200
S658        S  0.28236561  0.25562122  0.30280320    -0.03400
C659        C  0.26748706  0.27393509  0.31109494    -0.16800
C660        C  0.24511391  0.25885406  0.32228322    -0.14800
H661        H  0.20447448  0.21526706  0.34207301     0.20500
H662        H  0.27286117  0.19840325  0.30946824     0.16600
H663        H  0.24762812  0.14846589  0.32636604     0.19100
H664        H  0.23351998  0.26717409  0.32882153     0.12400
C665        C  0.27684047  0.46018322  0.35090337     0.16300
C666        C  0.27665737  0.48110037  0.36135419    -0.32700
C667        C  0.25272944  0.48335955  0.36098599     0.20700
C668        C  0.23010586  0.46560333  0.35065431     0.02900
C669        C  0.23007993  0.44442790  0.34057827    -0.22500
C670        C  0.25389273  0.44222255  0.34092379     0.12100
S671        S  0.30404369  0.45437559  0.34881756    -0.06100
C672        C  0.28397182  0.42731827  0.33454552    -0.09600
C673        C  0.25780027  0.42332601  0.33163789    -0.26200
S674        S  0.20422865  0.47327603  0.35038043    -0.03400
C675        C  0.22693023  0.00227741  0.36379857    -0.16800
C676        C  0.25357235  0.00710414  0.36576178    -0.14800
H677        H  0.29963628  0.00057707  0.36203931     0.20500
H678        H  0.21247437  0.43067611  0.33242508     0.16600
H679        H  0.24236373  0.40737069  0.32309992     0.19100
H680        H  0.27061243  0.02589500  0.37134648     0.12400
C681        C  0.37848994  0.05599519  0.78240358     0.16300
C682        C  0.35263233  0.53952442  0.79311416    -0.32700
C683        C  0.34757784  0.51373163  0.79970937     0.20700
C684        C  0.34936685  0.99971608  0.79116250     0.02900
C685        C  0.35630191  0.00734236  0.77329829    -0.22500
C686        C  0.37143374  0.03591040  0.76930307     0.12100
S687        S  0.39682681  0.08951500  0.77489531    -0.06100
C688        C  0.39599769  0.07636382  0.75401195    -0.09600
C689        C  0.38164389  0.04751590  0.75295577    -0.23800
S690        S  0.33170420  0.96618629  0.79889802    -0.03400
C691        C  0.33392540  0.47652302  0.81788694    -0.16800
C692        C  0.33384688  0.50113521  0.81512291    -0.14800
H693        H  0.34511899  0.55158532  0.80001666     0.20500
H694        H  0.35066894  0.99170825  0.76302014     0.16600
H695        H  0.37915889  0.03571415  0.74092511     0.19100
H696        H  0.32497025  0.50972343  0.82419651     0.12400
C697        C  0.26688351  0.03662679  0.85026645     0.16300
C698        C  0.26688257  0.05673510  0.83904803    -0.32700
C699        C  0.24406349  0.06063776  0.83990886     0.20700
C700        C  0.22216042  0.04526920  0.85144373     0.02900
C701        C  0.22247194  0.02557555  0.86300619    -0.22500
C702        C  0.24534604  0.02162575  0.86214254     0.12100
S703        S  0.29112335  0.02668517  0.84965482    -0.06100
C704        C  0.27000276  0.50140462  0.86561672    -0.09600
C705        C  0.24623939  0.50141027  0.87087384    -0.26200
S706        S  0.19584513  0.05237493  0.84979374    -0.03400
C707        C  0.21486498  0.07660471  0.83363075    -0.16800
C708        C  0.24009675  0.07878215  0.82976918    -0.14800
H709        H  0.28359721  0.06829372  0.82968396     0.20500
H710        H  0.20533690  0.01338586  0.87195960     0.16600
H711        H  0.23045211  0.48590214  0.87949812     0.19100
H712        H  0.25473790  0.09286197  0.81999413     0.12400
C713        C  0.22643583  0.26707184  0.82184313     0.16300
C714        C  0.22448241  0.28788730  0.83118442    -0.32700
C715        C  0.24855693  0.31396323  0.83293462     0.20700
C716        C  0.27352108  0.31924029  0.82562739     0.02900
C717        C  0.27540528  0.29849396  0.81604038    -0.22500
C718        C  0.25128928  0.27230194  0.81434252     0.12100
S719        S  0.20018117  0.23339130  0.81980557    -0.06100
C720        C  0.22269668  0.22625176  0.80850179    -0.09600
C721        C  0.24919653  0.24889415  0.80652186    -0.26200
S722        S  0.30047355  0.35210329  0.82977283    -0.03400
C723        C  0.27778993  0.35877047  0.84141553    -0.16800
C724        C  0.25085139  0.33652828  0.84193252    -0.14800
H725        H  0.20515525  0.28372439  0.83721031     0.20500
H726        H  0.29491817  0.30241388  0.81046659     0.16600
H727        H  0.26638344  0.24782333  0.80071561     0.19100
H728        H  0.23380350  0.33681383  0.84860813     0.12400
C729        C  0.34056395  0.37305349  0.93261733     0.16300
C730        C  0.34576734  0.35308259  0.94036424    -0.32700
C731        C  0.35517052  0.35747103  0.95804340     0.20700
C732        C  0.35936996  0.38081813  0.96743147     0.02900
C733        C  0.35388061  0.40051103  0.95978062    -0.22500
C734        C  0.34430490  0.39603359  0.94224036     0.12100
S735        S  0.32982257  0.37219099  0.91123873    -0.06100
C736        C  0.33012445  0.40294408  0.91546093    -0.09600
C737        C  0.33811231  0.41308359  0.93255138    -0.26200
S738        S  0.37095810  0.38275681  0.98857230    -0.03400
C739        C  0.36979534  0.35149943  0.98503670    -0.16800
C740        C  0.36099162  0.34036894  0.96815158    -0.14800
H741        H  0.34268266  0.33500155  0.93294267     0.20500
H742        H  0.35697588  0.41860366  0.96720056     0.16600
H743        H  0.33993031  0.43227798  0.93750429     0.19100
H744        H  0.35862309  0.32074753  0.96362863     0.12400
C745        C  0.49584044  0.14689587  0.05182063     0.16300
C746        C  0.48507097  0.14241836  0.06920449    -0.32700
C747        C  0.45730277  0.12152187  0.07175197     0.20700
C748        C  0.44073376  0.10639482  0.05756111     0.02900
C749        C  0.45155270  0.11067574  0.04026203    -0.22500
C750        C  0.47948111  0.13090672  0.03781390     0.12100
S751        S  0.02072519  0.13109330  0.03636934    -0.06100
C752        C  0.02228810  0.15910735  0.02539855    -0.09600
C753        C  0.00246073  0.16563770  0.03088741    -0.26200
S754        S  0.40752188  0.08225190  0.06332339    -0.03400
C755        C  0.41626276  0.09185521  0.08517044    -0.16800
C756        C  0.44341101  0.11298695  0.08769380    -0.14800
H757        H  0.49787600  0.15438502  0.08029305     0.20500
H758        H  0.43885201  0.09844003  0.02920837     0.16600
H759        H  0.99942751  0.18163220  0.02486436     0.19100
H760        H  0.45250550  0.12147083  0.10053530     0.12400
C761        C  0.14832560  0.14869405  0.88652605     0.16300
C762        C  0.14748968  0.15840199  0.90371566    -0.32700
C763        C  0.12268641  0.15691901  0.90922928     0.20700
C764        C  0.09992375  0.14628159  0.89806661     0.02900
C765        C  0.10062593  0.13621309  0.88112452    -0.22500
C766        C  0.12525852  0.13770985  0.87564306     0.12100
S767        S  0.17658331  0.14971657  0.87676919    -0.06100
C768        C  0.15690419  0.13511385  0.85792384    -0.09600
C769        C  0.12995976  0.12974535  0.85937497    -0.26200
S770        S  0.07221063  0.14729207  0.90655437    -0.03400
C771        C  0.09107571  0.16193361  0.92557203    -0.16800
C772        C  0.11761477  0.16572423  0.92523787    -0.14800
H773        H  0.16543466  0.16707595  0.91227469     0.20500
H774        H  0.08282393  0.12796882  0.87244686     0.16600
H775        H  0.11470092  0.12103207  0.84888405     0.19100
H776        H  0.13246041  0.17486856  0.93592049     0.12400
C777        C  0.45524605  0.07044541  0.93512153     0.16300
C778        C  0.44153215  0.04485099  0.92619929    -0.32700
C779        C  0.41887026  0.03960929  0.91559073     0.20700
C780        C  0.40989399  0.05873228  0.91422472     0.02900
C781        C  0.42351495  0.08426050  0.92321827    -0.22500
C782        C  0.44645478  0.08969404  0.93358141     0.12100
S783        S  0.48450178  0.08167237  0.94741419    -0.06100
C784        C  0.48527980  0.11288938  0.95014522    -0.09600
C785        C  0.46346530  0.11402454  0.94233917    -0.26200
S786        S  0.38127351  0.04794554  0.90135156    -0.03400
C787        C  0.38151466  0.01741724  0.89763965    -0.16800
C788        C  0.40282317  0.01593826  0.90592519    -0.14800
H789        H  0.44850383  0.02989650  0.92723504     0.20500
H790        H  0.41672998  0.09934569  0.92202494     0.16600
H791        H  0.46111960  0.13224888  0.94214776     0.19100
H792        H  0.40471301  0.49730490  0.90215846     0.12400
C793        C  0.13754596  0.30903942  0.91856369     0.16300
C794        C  0.15233674  0.32441691  0.90357608    -0.32700
C795        C  0.17656634  0.34997872  0.90646666     0.20700
C796        C  0.18535577  0.35994352  0.92354985     0.02900
C797        C  0.17009873  0.34497679  0.93852202    -0.22500
C798        C  0.14614641  0.31917467  0.93563532     0.12100
S799        S  0.10955733  0.27624476  0.91783862    -0.06100
C800        C  0.10943562  0.27601950  0.94078378    -0.09600
C801        C  0.12983544  0.30044205  0.94848845    -0.26200
S802        S  0.21669974  0.38974623  0.92439720    -0.03400
C803        C  0.21810140  0.38880704  0.90149720    -0.16800
C804        C  0.19511112  0.36674100  0.89368423    -0.14800
H805        H  0.14590988  0.31622687  0.89027791     0.20500
H806        H  0.17727473  0.35251373  0.95184638     0.16600
H807        H  0.13335904  0.30377098  0.96266334     0.19100
H808        H  0.19289381  0.36226642  0.87956583     0.12400
C809        C  0.47152140  0.24383897  0.98217458     0.16300
C810        C  0.44791748  0.24642989  0.98167459    -0.32700
C811        C  0.44718113  0.26611693  0.99300849     0.20700
C812        C  0.46917960  0.28300100  0.00404251     0.02900
C813        C  0.49257522  0.28010200  0.00474318    -0.22500
C814        C  0.49301838  0.25995117  0.99373798     0.12100
S815        S  0.97289345  0.22121203  0.96781150    -0.06100
C816        C  0.00540543  0.23526881  0.97684752    -0.09600
C817        C  0.51356098  0.25355927  0.99290067    -0.26200
S818        S  0.46424925  0.30566072  0.01675564    -0.03400
C819        C  0.43189268  0.29147884  0.00753692    -0.16800
C820        C  0.42555569  0.27071322  0.99511895    -0.14800
H821        H  0.92632343  0.23203687  0.97336197     0.20500
H822        H  0.50954531  0.29274864  0.01364215     0.16600
H823        H  0.53219971  0.26345814  0.00086292     0.19100
H824        H  0.40592037  0.25921038  0.98830762     0.12400
C825        C  0.23562901  0.26674513  0.01069808     0.16300
C826        C  0.21479746  0.26715723  0.00064659    -0.32700
C827        C  0.18768766  0.24500345  0.00289072     0.20700
C828        C  0.18155872  0.22316886  0.01446377     0.02900
C829        C  0.20236916  0.22302681  0.02478569    -0.22500
C830        C  0.22949877  0.24541497  0.02272193     0.12100
S831        S  0.26994618  0.29076206  0.00897768    -0.06100
C832        C  0.27615147  0.27234032  0.02494838    -0.09600
C833        C  0.25273404  0.24876011  0.03118494    -0.26200
S834        S  0.14743908  0.19769387  0.01465796    -0.03400
C835        C  0.14133967  0.21704796  0.99932143    -0.16800
C836        C  0.16467963  0.24174954  0.99431358    -0.14800
H837        H  0.21957270  0.28387976  0.99130770     0.20500
H838        H  0.19766098  0.20606955  0.03390259     0.16600
H839        H  0.25288307  0.23415687  0.04068498     0.19100
H840        H  0.16481523  0.25647649  0.98478596     0.12400
O841        O  0.03595400  0.72249536  0.98566258    -0.85000
O842        O  0.05692443  0.69747137  0.00621263    -0.82000
C843        C  0.03718240  0.67225797  0.00653757     0.98500
O844        O  0.03346496  0.65627209  0.99360365    -0.82100
O845        O  0.02876057  0.63925694  0.95902543    -0.84700
C846        C  0.00805864  0.64086543  0.95408748     1.03000
O847        O  0.00917258  0.66405601  0.95387002    -0.77500
O848        O  0.02855295  0.72035117  0.95690937    -0.77700
C849        C  0.02432439  0.72597179  0.97247572     1.03000
O850        O  0.08689602  0.75390441  0.96624334    -0.85000
O851        O  0.10827111  0.72748757  0.98514053    -0.82000
C852        C  0.11235624  0.70878152  0.99111747     0.98500
O853        O  0.09292482  0.68371210  0.99115040    -0.82100
O854        O  0.08720482  0.67281355  0.95451877    -0.84700
C855        C  0.07919443  0.67175810  0.93865971     1.03000
O856        O  0.05916285  0.67562378  0.93521285    -0.77500
O857        O  0.07915231  0.73090765  0.94103378    -0.77600
C858        C  0.09127952  0.75326954  0.94971097     1.02900
Cr859      Cr  0.07119972  0.72322864  0.98465641     1.93700
Cr860      Cr  0.06062962  0.66537441  0.97429135     1.93200
Cr861      Cr  0.04498422  0.69753864  0.94840456     1.39100
O862        O  0.05908152  0.69568856  0.96906175    -1.22700
O863        O  0.28062829  0.96705502  0.85671613    -0.85000
O864        O  0.30189837  0.94190526  0.83670592    -0.82000
C865        C  0.32650825  0.96220917  0.83600073     0.98500
O866        O  0.34258443  0.96771746  0.84902137    -0.82100
O867        O  0.36013778  0.97263890  0.88397324    -0.84700
C868        C  0.35811170  0.99321646  0.88925569     1.03000
O869        O  0.33507404  0.99185969  0.88909132    -0.77500
O870        O  0.27978323  0.97311177  0.88550182    -0.77700
C871        C  0.27797880  0.97981002  0.86965908     1.03000
O872        O  0.24622438  0.91606424  0.87659195    -0.85000
O873        O  0.27151523  0.89216902  0.85829806    -0.82000
C874        C  0.28984039  0.88793059  0.85182838     0.98500
O875        O  0.31488986  0.90742071  0.85164326    -0.82100
O876        O  0.32639510  0.91354352  0.88758941    -0.84700
C877        C  0.32676400  0.92048351  0.90360928     1.03000
O878        O  0.32324694  0.94078860  0.90767726    -0.77500
O879        O  0.26879088  0.92148032  0.90151106    -0.77600
C880        C  0.24658915  0.91047877  0.89292791     1.02900
Cr881      Cr  0.27685484  0.93003965  0.85824766     1.93700
Cr882      Cr  0.33395373  0.94045280  0.86832734     1.93200
Cr883      Cr  0.30191854  0.95587080  0.89443638     1.39100
O884        O  0.30395941  0.94182149  0.87379791    -1.22700
O885        O  0.27534032  0.81416097  0.31908818    -0.85000
O886        O  0.30070125  0.86001835  0.34005692    -0.82000
C887        C  0.32588762  0.86613493  0.34028491     0.98500
O888        O  0.34162866  0.87844500  0.32722913    -0.82100
O889        O  0.35763670  0.89117751  0.29205926    -0.84700
C890        C  0.35543219  0.86838514  0.28703768     1.03000
O891        O  0.33215641  0.84658848  0.28663172    -0.77500
O892        O  0.27648654  0.80997017  0.29010282    -0.77700
C893        C  0.27184074  0.79951959  0.30555655     1.03000
O894        O  0.24388854  0.83492444  0.30098629    -0.85000
O895        O  0.27107388  0.88236989  0.32025449    -0.82000
C896        C  0.28979001  0.90521039  0.32620499     0.98500
O897        O  0.31462869  0.91079360  0.32595243    -0.82100
O898        O  0.32414248  0.91680449  0.28951324    -0.84700
C899        C  0.32411538  0.91048592  0.27336835     1.03000
O900        O  0.32102010  0.88687042  0.26917663    -0.77500
O901        O  0.26642265  0.85215849  0.27590231    -0.77600
C902        C  0.24445022  0.84202084  0.28487852     1.02900
Cr903      Cr  0.27484412  0.84917203  0.31893635     1.93700
Cr904      Cr  0.33225649  0.89696782  0.30835817     1.93200
Cr905      Cr  0.29925432  0.84992843  0.28205890     1.39100
O906        O  0.30192239  0.86512294  0.30314551    -1.22700
O907        O  0.04556793  0.81112438  0.19647785    -0.85000
O908        O  0.03628918  0.84481544  0.17372234    -0.82000
C909        C  0.03141449  0.86402621  0.16954748     0.98500
O910        O  0.04279470  0.88713715  0.17785666    -0.82100
O911        O  0.01708328  0.88082051  0.21004379    -0.84700
C912        C  0.00629915  0.86800430  0.22433801     1.03000
O913        O  0.01679263  0.85604928  0.23287605    -0.77500
O914        O  0.01596916  0.81192336  0.21504586    -0.77700
C915        C  0.02227641  0.79888185  0.20401291     1.03000
O916        O  0.09956929  0.85643627  0.20350872    -0.85000
O917        O  0.09265863  0.88668915  0.17668267    -0.82000
C918        C  0.10628669  0.91046904  0.18355179     0.98500
O919        O  0.09630084  0.91696946  0.19643261    -0.82100
O920        O  0.06956540  0.91132432  0.22764836    -0.84700
C921        C  0.07807846  0.90274792  0.24039534     1.03000
O922        O  0.07344296  0.87803535  0.24094013    -0.77500
O923        O  0.07290451  0.83291231  0.22605955    -0.77600
C924        C  0.09616427  0.84415435  0.21825731     1.02900
Cr925      Cr  0.06759640  0.85090802  0.18903824     1.93700
Cr926      Cr  0.05646454  0.89645426  0.20314846     1.93200
Cr927      Cr  0.04548974  0.84610525  0.22696874     1.39100
O928        O  0.05628438  0.86462444  0.20646954    -1.22700
O929        O  0.30682477  0.54642528  0.14396178    -0.85000
O930        O  0.34088456  0.53918087  0.16759178    -0.82000
C931        C  0.36041540  0.53520205  0.17211867     0.98500
O932        O  0.38345936  0.54707289  0.16393408    -0.82100
O933        O  0.37890882  0.51990925  0.13280932    -0.84700
C934        C  0.36525158  0.50712222  0.11926167     1.03000
O935        O  0.35248846  0.51609405  0.11018718    -0.77500
O936        O  0.30858727  0.51590066  0.12668291    -0.77700
C937        C  0.29522012  0.52241957  0.13724744     1.03000
O938        O  0.35078844  0.60061413  0.13578636    -0.85000
O939        O  0.38115916  0.59610838  0.16360473    -0.82000
C940        C  0.40500246  0.60973594  0.15704124     0.98500
O941        O  0.41178328  0.59989947  0.14423132    -0.82100
O942        O  0.40800651  0.57186285  0.11393460    -0.84700
C943        C  0.39913796  0.57829562  0.10034172     1.03000
O944        O  0.37416232  0.57217171  0.09919747    -0.77500
O945        O  0.32911451  0.57243837  0.11337651    -0.77600
C946        C  0.33920973  0.59610332  0.12073683     1.02900
Cr947      Cr  0.34616661  0.56962196  0.15130764     1.93700
Cr948      Cr  0.39281554  0.55961653  0.13847727     1.93200
Cr949      Cr  0.34246801  0.54512609  0.11413111     1.39100
O950        O  0.36066597  0.55796958  0.13451295    -1.22700
O951        O  0.31785744  0.78349444  0.01827423    -0.85000
O952        O  0.36590868  0.81046873  0.00000733    -0.82000
C953        C  0.37330494  0.83611957  0.00144763     0.98500
O954        O  0.38344250  0.84913643  0.01573548    -0.82100
O955        O  0.38763692  0.85799683  0.05172994    -0.84700
C956        C  0.36399548  0.85456893  0.05542924     1.03000
O957        O  0.34274482  0.83096150  0.05391677    -0.77500
O958        O  0.30838071  0.77508148  0.04656116    -0.77700
C959        C  0.30099062  0.77641917  0.03090298     1.03000
O960        O  0.33463293  0.74615682  0.03499678    -0.85000
O961        O  0.38395486  0.77606910  0.01764345    -0.82000
C962        C  0.40799567  0.79589899  0.01478704     0.98500
O963        O  0.41438915  0.82080848  0.01792224    -0.82100
O964        O  0.41311289  0.82386288  0.05429334    -0.84700
C965        C  0.40442369  0.82189257  0.06999202     1.03000
O966        O  0.38046435  0.81830683  0.07286400    -0.77500
O967        O  0.34927072  0.76490039  0.06142224    -0.77600
C968        C  0.33976045  0.74413121  0.05126622     1.02900
Cr969      Cr  0.35150485  0.78070200  0.01908659     1.93700
Cr970      Cr  0.39735206  0.83568560  0.03501513     1.93200
Cr971      Cr  0.34652143  0.79785689  0.05714494     1.39100
O972        O  0.36517171  0.80455194  0.03698631    -1.22700
O973        O  0.21610683  0.68574571  0.81864608    -0.85000
O974        O  0.19484079  0.63974201  0.83943807    -0.82000
C975        C  0.16943894  0.63258137  0.84048506     0.98500
O976        O  0.15344944  0.62102585  0.82747490    -0.82100
O977        O  0.13598019  0.60863879  0.79239367    -0.84700
C978        C  0.13748932  0.63113779  0.78726011     1.03000
O979        O  0.16051686  0.65328723  0.78676721    -0.77500
O980        O  0.21626909  0.69117576  0.78975269    -0.77700
C981        C  0.21891458  0.70068807  0.80539854     1.03000
O982        O  0.25004750  0.66855783  0.79907617    -0.85000
O983        O  0.22545486  0.62010556  0.81830049    -0.82000
C984        C  0.20742355  0.59727036  0.82486961     0.98500
O985        O  0.18221496  0.59063702  0.82471725    -0.82100
O986        O  0.17072575  0.58440705  0.78847689    -0.84700
C987        C  0.16992567  0.59069846  0.77244360     1.03000
O988        O  0.17249295  0.61418964  0.76850257    -0.77500
O989        O  0.22696790  0.64979488  0.77451752    -0.77600
C990        C  0.24930454  0.66114147  0.78300609     1.02900
Cr991      Cr  0.21966215  0.65232380  0.81769445     1.93700
Cr992      Cr  0.16272355  0.60348655  0.80788627     1.93200
Cr993      Cr  0.19392158  0.65108692  0.78146038     1.39100
O994        O  0.19225532  0.63573211  0.80234616    -1.22700
O995        O  0.44698359  0.68623706  0.69573979    -0.85000
O996        O  0.45446461  0.65274530  0.67194498    -0.82000
C997        C  0.45905997  0.63363186  0.66716545     0.98500
O998        O  0.44918608  0.61086095  0.67584268    -0.82100
O999        O  0.47576125  0.61786547  0.70792402    -0.84700
C1000       C  0.48499100  0.62859303  0.72294646     1.03000
O1001       O  0.47320466  0.63889268  0.73196941    -0.77500
O1002       O  0.47574663  0.68414234  0.71452312    -0.77700
C1003       C  0.46996023  0.69779209  0.70369525     1.03000
O1004       O  0.39224041  0.64111034  0.70277292    -0.85000
O1005       O  0.39859193  0.61062745  0.67586018    -0.82000
C1006       C  0.38556565  0.58694813  0.68300992     0.98500
O1007       O  0.39632410  0.58069926  0.69549241    -0.82100
O1008       O  0.42398049  0.58653414  0.72620741    -0.84700
C1009       C  0.41259195  0.59354747  0.73814567     1.03000
O1010       O  0.41565384  0.61765086  0.73841394    -0.77500
O1011       O  0.41913386  0.66487164  0.72493727    -0.77600
C1012       C  0.39596727  0.65417097  0.71719059     1.02900
Cr1013     Cr  0.42398618  0.64658984  0.68797217     1.93700
Cr1014     Cr  0.43623984  0.60144869  0.70145357     1.93200
Cr1015     Cr  0.44538264  0.65013275  0.72579551     1.39100
O1016       O  0.43565025  0.63276593  0.70500774    -1.22700
O1017       O  0.45966676  0.77893701  0.48746438    -0.85000
O1018       O  0.43712942  0.80441213  0.50574058    -0.82000
C1019       C  0.45732274  0.82918284  0.50537082     0.98500
O1020       O  0.46253137  0.84375103  0.49146356    -0.82100
O1021       O  0.46885131  0.85599995  0.45565128    -0.84700
C1022       C  0.48853521  0.85212579  0.45125523     1.03000
O1023       O  0.48561221  0.82817324  0.45214939    -0.77500
O1024       O  0.46296843  0.77206045  0.45911871    -0.77700
C1025       C  0.47059621  0.77283413  0.47501691     1.03000
O1026       O  0.40755246  0.74320108  0.46930421    -0.85000
O1027       O  0.38682942  0.77259421  0.48602293    -0.82000
C1028       C  0.38351327  0.79279714  0.48976685     0.98500
O1029       O  0.40302143  0.81768563  0.48784509    -0.82100
O1030       O  0.40994708  0.82461420  0.45147722    -0.84700
C1031       C  0.41712792  0.82286029  0.43580704     1.03000
O1032       O  0.43622280  0.81725446  0.43307703    -0.77500
O1033       O  0.41273535  0.76271442  0.44304024    -0.77600
C1034       C  0.40097018  0.74171175  0.45302197     1.02900
Cr1035     Cr  0.42366134  0.77649165  0.48578223     1.93700
Cr1036     Cr  0.43603097  0.83323965  0.47149468     1.93200
Cr1037     Cr  0.44846772  0.79549727  0.44838744     1.39100
O1038       O  0.43569541  0.80151985  0.46849440    -1.22700
O1039       O  0.21105451  0.53250063  0.35517846    -0.85000
O1040       O  0.18835983  0.55679002  0.33540656    -0.82000
C1041       C  0.16358182  0.53688572  0.33553890     0.98500
O1042       O  0.14845279  0.53263961  0.34900090    -0.82100
O1043       O  0.13380049  0.52776969  0.38423765    -0.84700
C1044       C  0.13615700  0.50750218  0.38967383     1.03000
O1045       O  0.15940074  0.50904352  0.38959185    -0.77500
O1046       O  0.21546943  0.52940881  0.38388777    -0.77700
C1047       C  0.21623442  0.52169591  0.36816527     1.03000
O1048       O  0.24665805  0.58493217  0.37331925    -0.85000
O1049       O  0.22033414  0.60748679  0.35522813    -0.82000
C1050       C  0.20135521  0.61198342  0.35059532     0.98500
O1051       O  0.17623298  0.59306552  0.35197936    -0.82100
O1052       O  0.16644466  0.58685493  0.38831187    -0.84700
C1053       C  0.16695745  0.57949097  0.40415132     1.03000
O1054       O  0.17176839  0.55989444  0.40739560    -0.77500
O1055       O  0.22610765  0.58125076  0.39897101    -0.77600
C1056       C  0.24753628  0.59205926  0.38945826     1.02900
Cr1057     Cr  0.21474639  0.56961932  0.35608303     1.93700
Cr1058     Cr  0.15848423  0.56005925  0.36853991     1.93200
Cr1059     Cr  0.19289939  0.54581576  0.39334280     1.39100
O1060       O  0.18891401  0.55881887  0.37273302    -1.22700
O1061       O  0.17534023  0.96271577  0.65517424    -0.85000
O1062       O  0.12715361  0.93981877  0.67361250    -0.82000
C1063       C  0.12089917  0.95884929  0.67292487     0.98500
O1064       O  0.10988503  0.96200552  0.65918522    -0.82100
O1065       O  0.10226000  0.96713775  0.62367842    -0.84700
C1066       C  0.12486555  0.98790906  0.61876712     1.03000
O1067       O  0.14702460  0.98744072  0.62003406    -0.77500
O1068       O  0.18383890  0.96913928  0.62656163    -0.77700
C1069       C  0.19194294  0.97417116  0.64252276     1.03000
O1070       O  0.15883896  0.91127488  0.63672815    -0.85000
O1071       O  0.10937816  0.88859706  0.65362706    -0.82000
C1072       C  0.08573276  0.88369165  0.65805566     0.98500
O1073       O  0.07906731  0.90218953  0.65621041    -0.82100
O1074       O  0.07814630  0.90851227  0.61940519    -0.84700
C1075       C  0.08684603  0.91672792  0.60376582     1.03000
O1076       O  0.11130636  0.93665519  0.60111397    -0.77500
O1077       O  0.14571442  0.91735813  0.61033175    -0.77600
C1078       C  0.15501829  0.90578477  0.62026461     1.02900
Cr1079     Cr  0.14147959  0.92642282  0.65341830     1.93700
Cr1080     Cr  0.09477578  0.93502981  0.63951395     1.93200
Cr1081     Cr  0.14562695  0.95164738  0.61615453     1.39100
O1082       O  0.12736648  0.93752528  0.63632861    -1.22700
O1083       O  0.18237325  0.72321065  0.52155237    -0.85000
O1084       O  0.13499506  0.69726297  0.50217995    -0.82000
C1085       C  0.12949713  0.67208933  0.50197070     0.98500
O1086       O  0.11944355  0.65681180  0.51554282    -0.82100
O1087       O  0.10965362  0.64188058  0.55098150    -0.84700
C1088       C  0.13270833  0.64476563  0.55556506     1.03000
O1089       O  0.15391992  0.66854350  0.55573454    -0.77500
O1090       O  0.18921944  0.72429541  0.55038792    -0.77700
C1091       C  0.19820783  0.72792522  0.53454914     1.03000
O1092       O  0.16403874  0.75601067  0.54013796    -0.85000
O1093       O  0.11466523  0.72759788  0.52315027    -0.82000
C1094       C  0.09186499  0.70825259  0.51768010     0.98500
O1095       O  0.08687008  0.68337040  0.51793532    -0.82100
O1096       O  0.08353274  0.67505051  0.55436948    -0.84700
C1097       C  0.09079108  0.67605651  0.57034764     1.03000
O1098       O  0.11466675  0.68000600  0.57405891    -0.77500
O1099       O  0.14839993  0.73498361  0.56584793    -0.77600
C1100       C  0.15848987  0.75663023  0.55640016     1.02900
Cr1101     Cr  0.14785958  0.72400229  0.52296359     1.93700
Cr1102     Cr  0.10215158  0.66651473  0.53501466     1.93200
Cr1103     Cr  0.15035135  0.70161073  0.55995654     1.39100
O1104       O  0.13369083  0.69752377  0.53930981    -1.22700
C1105       C  0.11376421  0.54053767  0.59311999     0.16300
C1106       C  0.10170711  0.55409810  0.58449253    -0.32700
C1107       C  0.11937351  0.57939229  0.57599325     0.20700
C1108       C  0.14783079  0.59066362  0.57595176     0.02900
C1109       C  0.15988933  0.57676661  0.58427586    -0.22500
C1110       C  0.14218202  0.55153418  0.59294922     0.12100
S1111       S  0.09576328  0.51005785  0.60454104    -0.06100
C1112       C  0.12677602  0.51188814  0.60911289    -0.09600
C1113       C  0.14981898  0.53508561  0.60209471    -0.26200
S1114       S  0.16574123  0.62273457  0.56618751    -0.03400
C1115       C  0.13451611  0.62086546  0.56220870    -0.16800
C1116       C  0.11158790  0.59643457  0.56789938    -0.14800
H1117       H  0.07951721  0.54557818  0.58471794     0.20500
H1118       H  0.18211492  0.58556286  0.58436001     0.16600
H1119       H  0.17090028  0.53940500  0.60334455     0.19100
H1120       H  0.09044039  0.59206348  0.56706787     0.12400
C1121       C  0.16415630  0.84528594  0.60540301     0.16300
C1122       C  0.16317666  0.81971425  0.60396688    -0.32700
C1123       C  0.16511674  0.81076032  0.58690302     0.20700
C1124       C  0.16873603  0.82682352  0.57190432     0.02900
C1125       C  0.16998032  0.85258744  0.57334856    -0.22500
C1126       C  0.16715582  0.86114352  0.59039929     0.12100
S1127       S  0.15975268  0.85856902  0.62478999    -0.06100
C1128       C  0.16110906  0.88531091  0.61248030    -0.09600
C1129       C  0.16537041  0.88419632  0.59439730    -0.26200
S1130       S  0.16927280  0.81142343  0.55233540    -0.03400
C1131       C  0.16371808  0.78280724  0.56456178    -0.16800
C1132       C  0.16226567  0.78553443  0.58276949    -0.14800
H1133       H  0.15998438  0.80685702  0.61557415     0.20500
H1134       H  0.17198503  0.86488995  0.56166120     0.16600
H1135       H  0.16617380  0.89896097  0.58464530     0.19100
H1136       H  0.15840050  0.76950176  0.59245260     0.12400
C1137       C  0.14817163  0.60288472  0.44731607     0.16300
C1138       C  0.14057912  0.60493156  0.46474453    -0.32700
C1139       C  0.13956895  0.62884774  0.46930049     0.20700
C1140       C  0.14596027  0.64999866  0.45710378     0.02900
C1141       C  0.15328837  0.64780678  0.43950942    -0.22500
C1142       C  0.15416509  0.62368127  0.43489810     0.12100
S1143       S  0.15119965  0.57573110  0.43956133    -0.06100
C1144       C  0.16041921  0.59220301  0.41921065    -0.09600
C1145       C  0.16100037  0.61752121  0.41857997    -0.26200
S1146       S  0.14431074  0.67773412  0.46568001    -0.03400
C1147       C  0.13459829  0.66033522  0.48578224    -0.16800
C1148       C  0.13291013  0.63456091  0.48567485    -0.14800
H1149       H  0.13585020  0.58862925  0.47440150     0.20500
H1150       H  0.15826167  0.66421981  0.42990397     0.16600
H1151       H  0.16648585  0.63079782  0.40694945     0.19100
H1152       H  0.12750510  0.62085432  0.49709307     0.12400
C1153       C  0.49734573  0.84958470  0.54953784     0.16300
C1154       C  0.50677464  0.85099944  0.56701415    -0.32700
C1155       C  0.02956159  0.87591816  0.57266304     0.20700
C1156       C  0.04582387  0.89587343  0.56012708     0.02900
C1157       C  0.03652200  0.89456255  0.54267260    -0.22500
C1158       C  0.01040575  0.87219621  0.53826111     0.12100
S1159       S  0.46628187  0.82398444  0.54154992    -0.06100
C1160       C  0.47493851  0.84077546  0.52124181    -0.09600
C1161       C  0.99815494  0.86696322  0.52184795    -0.26200
S1162       S  0.07711825  0.92107308  0.56788089    -0.03400
C1163       C  0.06826920  0.90483450  0.58835050    -0.16800
C1164       C  0.04227861  0.88105661  0.58897775    -0.14800
H1165       H  0.49413005  0.83545322  0.57683277     0.20500
H1166       H  0.04922995  0.91016490  0.53289584     0.16600
H1167       H  0.00749501  0.87988419  0.51020745     0.19100
H1168       H  0.03321737  0.86826018  0.60069731     0.12400
C1169       C  0.05697173  0.90622278  0.43003978     0.16300
C1170       C  0.08281109  0.91994963  0.42147415    -0.32700
C1171       C  0.09070880  0.94563640  0.41326584     0.20700
C1172       C  0.07361242  0.95704473  0.41361448     0.02900
C1173       C  0.04808478  0.94359045  0.42239287    -0.22500
C1174       C  0.04022471  0.91801374  0.43056931     0.12100
S1175       S  0.04261236  0.87404985  0.43976806    -0.06100
C1176       C  0.01384263  0.87668374  0.44458077    -0.09600
C1177       C  0.01566113  0.90136574  0.43907620    -0.26200
S1178       S  0.08653496  0.98811766  0.40286551    -0.03400
C1179       C  0.11560783  0.98615098  0.39798770    -0.16800
C1180       C  0.11501937  0.96236777  0.40433095    -0.14800
H1181       H  0.09598500  0.91085694  0.42102784     0.20500
H1182       H  0.03477546  0.95254029  0.42267102     0.16600
H1183       H  0.49610614  0.90093071  0.43538953     0.19100
H1184       H  0.13164542  0.95787504  0.40281519     0.12400
C1185       C  0.33830941  0.67292697  0.43830153     0.16300
C1186       C  0.31257336  0.64848293  0.43694286    -0.32700
C1187       C  0.30249300  0.63866557  0.41981148     0.20700
C1188       C  0.31756868  0.65208941  0.40467435     0.02900
C1189       C  0.34331819  0.67647978  0.40603351    -0.22500
C1190       C  0.35308359  0.68666664  0.42314518     0.12100
S1191       S  0.35337258  0.68938241  0.45780898    -0.06100
C1192       C  0.37937601  0.71540695  0.44532912    -0.09600
C1193       C  0.37663058  0.71103315  0.42710582    -0.26200
S1194       S  0.30134910  0.63718887  0.38511049    -0.03400
C1195       C  0.27371047  0.61303908  0.39748582    -0.16800
C1196       C  0.27726482  0.61630391  0.41575519    -0.14800
H1197       H  0.30057309  0.63800801  0.44870287     0.20500
H1198       H  0.35489162  0.68747581  0.39425945     0.16600
H1199       H  0.39070190  0.72543917  0.41722322     0.19100
H1200       H  0.26192313  0.60330495  0.42556323     0.12400
C1201       C  0.03728029  0.71919865  0.49426252     0.16300
C1202       C  0.01618277  0.71789785  0.48352101    -0.32700
C1203       C  0.01158518  0.74055219  0.48416948     0.20700
C1204       C  0.02710172  0.76323789  0.49518540     0.02900
C1205       C  0.04837720  0.76472238  0.50564901    -0.22500
C1206       C  0.05311359  0.74230062  0.50486628     0.12100
S1207       S  0.04614165  0.69390684  0.49567567    -0.06100
C1208       C  0.07174939  0.71512509  0.51036629    -0.09600
C1209       C  0.07297240  0.74015646  0.51403080    -0.26200
S1210       S  0.51563310  0.78533214  0.49591992    -0.03400
C1211       C  0.49216103  0.76655252  0.47958635    -0.16800
C1212       C  0.99151264  0.74297608  0.47525337    -0.14800
H1213       H  0.00376870  0.69996241  0.47517779     0.20500
H1214       H  0.06050792  0.78245828  0.51421315     0.16600
H1215       H  0.08774088  0.75603728  0.52290130     0.19100
H1216       H  0.97636890  0.72730592  0.46645622     0.12400
C1217       C  0.31197286  0.78042312  0.50154239     0.16300
C1218       C  0.28572598  0.77761312  0.50127648    -0.32700
C1219       C  0.26718717  0.76174609  0.51478717     0.20700
C1220       C  0.27453408  0.74982840  0.52835936     0.02900
C1221       C  0.30082378  0.75247771  0.52857138    -0.22500
C1222       C  0.31913927  0.76767721  0.51469523     0.12100
S1223       S  0.33694991  0.79796096  0.48586642    -0.06100
C1224       C  0.35687923  0.78725184  0.49680134    -0.09600
C1225       C  0.34493544  0.77128842  0.51189322    -0.26200
S1226       S  0.24866968  0.73132732  0.54347647    -0.03400
C1227       C  0.22766164  0.73895799  0.53087317    -0.16800
C1228       C  0.24033440  0.75540659  0.51609765    -0.14800
H1229       H  0.27978684  0.78687301  0.49076314     0.20500
H1230       H  0.30652205  0.74263812  0.53883773     0.16600
H1231       H  0.35452152  0.76259079  0.52019901     0.19100
H1232       H  0.23025237  0.76211344  0.50666134     0.12400
C1233       C  0.49931900  0.65178011  0.62291795     0.16300
C1234       C  0.51042483  0.66150267  0.60586243    -0.32700
C1235       C  0.04677551  0.65379355  0.61035510     0.20700
C1236       C  0.03423192  0.66768025  0.60317160     0.02900
C1237       C  0.01225830  0.66799444  0.61204188    -0.22500
C1238       C  0.00305143  0.65322545  0.62813855     0.12100
S1239       S  0.47241098  0.65379331  0.63219210    -0.06100
C1240       C  0.47579153  0.63796388  0.65101033    -0.09600
C1241       C  0.98232213  0.65140823  0.63891619    -0.26200
S1242       S  0.04760914  0.68317381  0.58309363    -0.03400
C1243       C  0.07083074  0.67146366  0.58463554    -0.16800
C1244       C  0.06813457  0.65632158  0.59992633    -0.14800
H1245       H  0.50164237  0.67051355  0.59712309     0.20500
H1246       H  0.00267202  0.67913495  0.60659223     0.16600
H1247       H  0.97070085  0.66182705  0.63635023     0.19100
H1248       H  0.08053679  0.64688887  0.60294236     0.12400
C1249       C  0.02879338  0.76902788  0.69182850     0.16300
C1250       C  0.05391284  0.79239263  0.68685607    -0.32700
C1251       C  0.05290811  0.81494911  0.67925210     0.20700
C1252       C  0.02815713  0.81468196  0.67713168     0.02900
C1253       C  0.50212608  0.79172295  0.67969030    -0.22500
C1254       C  0.00400080  0.76851373  0.68924751     0.12100
S1255       S  0.02528621  0.73878890  0.70026596    -0.06100
C1256       C  0.48930887  0.72738697  0.70027237    -0.09600
C1257       C  0.48091774  0.74432406  0.69218575    -0.26200
S1258       S  0.03137239  0.84411531  0.66758700    -0.03400
C1259       C  0.06635122  0.85657327  0.66601364    -0.16800
C1260       C  0.07488444  0.83889005  0.67279191    -0.14800
H1261       H  0.07331283  0.79271352  0.68843077     0.20500
H1262       H  0.48271246  0.78972932  0.67546781     0.16600
H1263       H  0.45978114  0.73787726  0.68862792     0.19100
H1264       H  0.09608166  0.84331701  0.67294364     0.12400
C1265       C  0.30932299  0.53362365  0.67514589     0.16300
C1266       C  0.28135570  0.51352291  0.67702920    -0.32700
C1267       C  0.26360535  0.51048620  0.66301800     0.20700
C1268       C  0.27321331  0.52627200  0.64760043     0.02900
C1269       C  0.30120730  0.54663136  0.64578725    -0.22500
C1270       C  0.31891737  0.55006097  0.65997931     0.12100
S1271       S  0.33395891  0.54098982  0.69089289    -0.06100
C1272       C  0.35735605  0.56702584  0.67712996    -0.09600
C1273       C  0.34650588  0.56944077  0.66109895    -0.26200
S1274       S  0.24823699  0.51849296  0.63191091    -0.03400
C1275       C  0.22130906  0.99218469  0.64665342    -0.16800
C1276       C  0.23320926  0.98743440  0.66137454    -0.14800
H1277       H  0.27369737  0.50096404  0.68898328     0.20500
H1278       H  0.30881091  0.55937791  0.63390972     0.16600
H1279       H  0.35806306  0.58493923  0.65098521     0.19100
H1280       H  0.22225206  0.97065659  0.67085959     0.12400
C1281       C  0.15822309  0.53182668  0.74003363     0.16300
C1282       C  0.15575261  0.50806055  0.73153409    -0.32700
C1283       C  0.14450466  0.50193103  0.71428679     0.20700
C1284       C  0.13612025  0.51875082  0.70598109     0.02900
C1285       C  0.13897628  0.54263606  0.71434133    -0.22500
C1286       C  0.15024565  0.54878884  0.73148315     0.12100
S1287       S  0.17023800  0.54242059  0.76118441    -0.06100
C1288       C  0.16471075  0.57012019  0.75832113    -0.09600
C1289       C  0.15420586  0.57090692  0.74179732    -0.26200
S1290       S  0.12593961  0.00851354  0.68486905    -0.03400
C1291       C  0.12701799  0.97831468  0.68786988    -0.16800
C1292       C  0.13564637  0.97548096  0.70467987    -0.14800
H1293       H  0.16210014  0.49484311  0.73811596     0.20500
H1294       H  0.13253139  0.55579994  0.70778516     0.16600
H1295       H  0.14909352  0.58648516  0.73769846     0.19100
H1296       H  0.13780590  0.95801955  0.70890604     0.12400
C1297       C  0.03903150  0.61298223  0.74352257     0.16300
C1298       C  0.05402760  0.60105586  0.75042044    -0.32700
C1299       C  0.07550248  0.61704393  0.76239471     0.20700
C1300       C  0.08201570  0.64385961  0.76706668     0.02900
C1301       C  0.06668563  0.65553873  0.76046191    -0.22500
C1302       C  0.04501359  0.63943550  0.74870112     0.12100
S1303       S  0.01207078  0.59705178  0.72892706    -0.06100
C1304       C  0.00836863  0.62602665  0.73026074    -0.09600
C1305       C  0.02732936  0.64690337  0.74127385    -0.26200
S1306       S  0.11029196  0.66081607  0.78047323    -0.03400
C1307       C  0.11311445  0.63129680  0.78011333    -0.16800
C1308       C  0.09301816  0.60952431  0.77011943    -0.14800
H1309       H  0.04926154  0.58029114  0.74655743     0.20500
H1310       H  0.07158458  0.67638631  0.76421840     0.16600
H1311       H  0.02771488  0.66627179  0.74401530     0.19100
H1312       H  0.09229109  0.58989506  0.76777364     0.12400
C1313       C  0.31844972  0.67230392  0.76470017     0.16300
C1314       C  0.34530333  0.67693417  0.76221745    -0.32700
C1315       C  0.35114907  0.66803137  0.74611508     0.20700
C1316       C  0.33129971  0.65542235  0.73297156     0.02900
C1317       C  0.30465824  0.65124380  0.73532560    -0.22500
C1318       C  0.29873086  0.65979243  0.75148364     0.12100
S1319       S  0.30638544  0.67953960  0.78377072    -0.06100
C1320       C  0.27441987  0.66530879  0.77381400    -0.09600
C1321       C  0.27359196  0.65594556  0.75657473    -0.26200
S1322       S  0.34195220  0.64475419  0.71480750    -0.03400
C1323       C  0.37352743  0.65732916  0.72501188    -0.16800
C1324       C  0.37550796  0.66933322  0.74156182    -0.14800
H1325       H  0.36074208  0.68635567  0.77257038     0.20500
H1326       H  0.28897124  0.64104998  0.72519116     0.16600
H1327       H  0.25522766  0.64590490  0.74836414     0.19100
H1328       H  0.39358787  0.67789090  0.75002760     0.12400
C1329       C  0.37395834  0.94885072  0.10069255     0.16300
C1330       C  0.38625807  0.93363174  0.09497270    -0.32700
C1331       C  0.37227021  0.91303890  0.08210901     0.20700
C1332       C  0.34676966  0.90723365  0.07553703     0.02900
C1333       C  0.33461107  0.92273320  0.08108462    -0.22500
C1334       C  0.34896791  0.94383284  0.09365631     0.12100
S1335       S  0.38832938  0.97551194  0.11562905    -0.06100
C1336       C  0.36093746  0.98069059  0.11186229    -0.09600
C1337       C  0.34143796  0.96220455  0.09996835    -0.26200
S1338       S  0.33239388  0.88011515  0.06085542    -0.03400
C1339       C  0.36148470  0.87729348  0.06327386    -0.16800
C1340       C  0.38102132  0.89620903  0.07488837    -0.14800
H1341       H  0.40603229  0.93785942  0.10018701     0.20500
H1342       H  0.31495371  0.91866672  0.07575520     0.16600
H1343       H  0.32330647  0.96287134  0.09568038     0.19100
H1344       H  0.40006225  0.89678497  0.07843799     0.12400
C1345       C  0.33528559  0.65833069  0.10239741     0.16300
C1346       C  0.33542943  0.68331671  0.09994563    -0.32700
C1347       C  0.33356295  0.69101007  0.08251327     0.20700
C1348       C  0.33142472  0.67467447  0.06797755     0.02900
C1349       C  0.33072508  0.64922298  0.07045736    -0.22500
C1350       C  0.33275205  0.64154406  0.08800747     0.12100
S1351       S  0.33911750  0.64640744  0.12250861    -0.06100
C1352       C  0.33690015  0.61818613  0.11153887    -0.09600
C1353       C  0.33339691  0.61823314  0.09323749    -0.26200
S1354       S  0.33137245  0.68932747  0.04782212    -0.03400
C1355       C  0.33455611  0.71770625  0.05933282    -0.16800
C1356       C  0.33506203  0.71532319  0.07766713    -0.14800
H1357       H  0.33763034  0.69660628  0.11113513     0.20500
H1358       H  0.32932141  0.63632329  0.05922900     0.16600
H1359       H  0.33206829  0.60236913  0.08421160     0.19100
H1360       H  0.33751909  0.73121890  0.08708204     0.12400
C1361       C  0.47704910  0.85569109  0.13573846     0.16300
C1362       C  0.45594418  0.85712700  0.12660760    -0.32700
C1363       C  0.44615448  0.84181627  0.11078018     0.20700
C1364       C  0.45724924  0.82616293  0.10418103     0.02900
C1365       C  0.47788979  0.82420460  0.11352899    -0.22500
C1366       C  0.48736736  0.83916101  0.12950056     0.12100
S1367       S  0.99579881  0.87886669  0.15297109    -0.06100
C1368       C  0.01221777  0.85970946  0.15480179    -0.09600
C1369       C  0.50721739  0.83982422  0.14055101    -0.26200
S1370       S  0.44408101  0.81082828  0.08410120    -0.03400
C1371       C  0.42282876  0.82495993  0.08483988    -0.16800
C1372       C  0.42600505  0.84081030  0.09986394    -0.14800
H1373       H  0.44766330  0.86980008  0.13155650     0.20500
H1374       H  0.48637313  0.81176415  0.10848499     0.16600
H1375       H  0.51777683  0.82822120  0.13831714     0.19100
H1376       H  0.41490584  0.85182407  0.10231979     0.12400
C1377       C  0.46299127  0.68180497  0.17139959     0.16300
C1378       C  0.48748296  0.70736304  0.17304948    -0.32700
C1379       C  0.48752186  0.72690804  0.18484699     0.20700
C1380       C  0.46436822  0.72137905  0.19476288     0.02900
C1381       C  0.43986596  0.69558508  0.19327461    -0.22500
C1382       C  0.43975260  0.67604655  0.18131427     0.12100
S1383       S  0.45847303  0.65596612  0.15709609    -0.06100
C1384       C  0.42483978  0.63710125  0.16448608    -0.09600
C1385       C  0.41777550  0.65027314  0.17745959    -0.26200
S1386       S  0.46868968  0.74863616  0.20779826    -0.03400
C1387       C  0.00324932  0.76932471  0.19971639    -0.16800
C1388       C  0.01037485  0.75506205  0.18760957    -0.14800
H1389       H  0.50560713  0.71204080  0.16520712     0.20500
H1390       H  0.42156924  0.69113271  0.20083636     0.16600
H1391       H  0.39746946  0.64169055  0.18346307     0.19100
H1392       H  0.03009867  0.76384572  0.18078097     0.12400
C1393       C  0.21951819  0.96784619  0.14829846     0.16300
C1394       C  0.19367453  0.94343521  0.14983415    -0.32700
C1395       C  0.17384090  0.94416770  0.16098314     0.20700
C1396       C  0.17943277  0.96806292  0.17024281     0.02900
C1397       C  0.20520029  0.99247903  0.16864436    -0.22500
C1398       C  0.22499892  0.99174990  0.15749731     0.12100
S1399       S  0.24663391  0.97129952  0.13568317    -0.06100
C1400       C  0.26604320  0.50277687  0.14194697    -0.09600
C1401       C  0.25080172  0.51073484  0.15254340    -0.26200
S1402       S  0.15292624  0.96438086  0.18354577    -0.03400
C1403       C  0.13401204  0.93027701  0.17651132    -0.16800
C1404       C  0.14776117  0.92247888  0.16445524    -0.14800
H1405       H  0.18927283  0.92463618  0.14275072     0.20500
H1406       H  0.20826684  0.50845837  0.17299664     0.16600
H1407       H  0.25842567  0.53156231  0.15773410     0.19100
H1408       H  0.13933835  0.90179499  0.15883978     0.12400
C1409       C  0.10934148  0.94324282  0.28348900     0.16300
C1410       C  0.11557787  0.95166717  0.30125102    -0.32700
C1411       C  0.13136603  0.98033108  0.30467466     0.20700
C1412       C  0.14136842  0.99980254  0.29101299     0.02900
C1413       C  0.13484876  0.99138417  0.27321653    -0.22500
C1414       C  0.11826926  0.96269900  0.26982941     0.12100
S1415       S  0.08983481  0.90944597  0.27669753    -0.06100
C1416       C  0.09275589  0.92161839  0.25528340    -0.09600
C1417       C  0.10854125  0.95038938  0.25357432    -0.26200
S1418       S  0.16230048  0.52918229  0.29849421    -0.03400
C1419       C  0.15259193  0.51814521  0.32010573    -0.16800
C1420       C  0.13493174  0.48966927  0.32194658    -0.14800
H1421       H  0.10811570  0.93654854  0.31196246     0.20500
H1422       H  0.14208111  0.00651948  0.26251952     0.16600
H1423       H  0.11247689  0.96164832  0.24114200     0.19100
H1424       H  0.12727405  0.47901080  0.33454640     0.12400
C1425       C  0.34637431  0.84317791  0.38334330     0.16300
C1426       C  0.34783277  0.83322446  0.40026596    -0.32700
C1427       C  0.37249851  0.83388249  0.40487870     0.20700
C1428       C  0.39450639  0.84355888  0.39304597     0.02900
C1429       C  0.39311681  0.85366641  0.37622939    -0.22500
C1430       C  0.36867321  0.85339398  0.37173411     0.12100
S1431       S  0.31838609  0.84418171  0.37506318    -0.06100
C1432       C  0.33715810  0.85897271  0.35588732    -0.09600
C1433       C  0.36356705  0.86255567  0.35605054    -0.26200
S1434       S  0.42240122  0.84220627  0.40091350    -0.03400
C1435       C  0.40457593  0.82902313  0.42054903    -0.16800
C1436       C  0.37827164  0.82573250  0.42080236    -0.14800
H1437       H  0.33057066  0.82543360  0.40945097     0.20500
H1438       H  0.41039862  0.86149701  0.36705211     0.16600
H1439       H  0.37822389  0.87117139  0.34515500     0.19100
H1440       H  0.36415238  0.81774165  0.43200049     0.12400
C1441       C  0.35678938  0.48270684  0.20685638     0.16300
C1442       C  0.35222975  0.95790251  0.21480973    -0.32700
C1443       C  0.34154475  0.95173327  0.23215569     0.20700
C1444       C  0.33173005  0.96733637  0.24054154     0.02900
C1445       C  0.33124669  0.98933631  0.23156830    -0.22500
C1446       C  0.34148967  0.99518874  0.21402884     0.12100
S1447       S  0.37202785  0.49604325  0.18676731    -0.06100
C1448       C  0.35667645  0.51628592  0.18698897    -0.09600
C1449       C  0.34257070  0.01546208  0.20292244    -0.26200
S1450       S  0.32071089  0.95701396  0.26194190    -0.03400
C1451       C  0.32871056  0.93095344  0.25930676    -0.16800
C1452       C  0.33955725  0.93067943  0.24275237    -0.14800
H1453       H  0.37128381  0.45351357  0.21111991     0.20500
H1454       H  0.32325254  0.00135066  0.23797127     0.16600
H1455       H  0.33519597  0.02955897  0.20639347     0.19100
H1456       H  0.34594430  0.91599048  0.23874425     0.12400
C1457       C  0.41188794  0.85536207  0.26937248     0.16300
C1458       C  0.42892923  0.84448402  0.26498256    -0.32700
C1459       C  0.44743302  0.85683996  0.25076397     0.20700
C1460       C  0.44884077  0.87890119  0.24121357     0.02900
C1461       C  0.43215245  0.89012805  0.24581611    -0.22500
C1462       C  0.41385513  0.87797419  0.26017044     0.12100
S1463       S  0.38674825  0.84208992  0.28537264    -0.06100
C1464       C  0.37938793  0.86773510  0.27987498    -0.09600
C1465       C  0.39551166  0.88547939  0.26637904    -0.26200
S1466       S  0.47270657  0.89088820  0.22439964    -0.03400
C1467       C  0.48132751  0.86635487  0.23061743    -0.16800
C1468       C  0.46607183  0.84961507  0.24478066    -0.14800
H1469       H  0.42767274  0.82701462  0.27223495     0.20500
H1470       H  0.43331776  0.90751163  0.23850762     0.16600
H1471       H  0.39290716  0.90201766  0.26080071     0.19100
H1472       H  0.46903918  0.83353161  0.25073101     0.12400
C1473       C  0.17581673  0.83329510  0.26771923     0.16300
C1474       C  0.14924258  0.82947750  0.26549233    -0.32700
C1475       C  0.14259950  0.83567254  0.24873170     0.20700
C1476       C  0.16148788  0.84520779  0.23480798     0.02900
C1477       C  0.18788927  0.84876061  0.23698943    -0.22500
C1478       C  0.19454066  0.84265471  0.25371311     0.12100
S1479       S  0.18855680  0.82807201  0.28713471    -0.06100
C1480       C  0.21941232  0.83872011  0.27618231    -0.09600
C1481       C  0.21943799  0.84568683  0.25846228    -0.26200
S1482       S  0.14987890  0.85258681  0.21572956    -0.03400
C1483       C  0.11910894  0.84252516  0.22654992    -0.16800
C1484       C  0.11816350  0.83395249  0.24402617    -0.14800
H1485       H  0.13452556  0.82235442  0.27639095     0.20500
H1486       H  0.20277852  0.85636099  0.22618340     0.16600
H1487       H  0.23702949  0.85317587  0.24955491     0.19100
H1488       H  0.10069947  0.82736055  0.25294025     0.12400
C1489       C  0.21227832  0.68186955  0.33359326     0.16300
C1490       C  0.21094916  0.70592995  0.33004123    -0.32700
C1491       C  0.23308254  0.72752243  0.32070173     0.20700
C1492       C  0.25529621  0.72512960  0.31474087     0.02900
C1493       C  0.25672107  0.70112608  0.31841616    -0.22500
C1494       C  0.23490102  0.67980202  0.32815791     0.12100
S1495       S  0.18776971  0.65353539  0.34504768    -0.06100
C1496       C  0.20863744  0.63915348  0.34294099    -0.09600
C1497       C  0.23305514  0.65542257  0.33367275    -0.26200
S1498       S  0.28043765  0.75412141  0.30406870    -0.03400
C1499       C  0.26106219  0.76970096  0.30814646    -0.16800
C1500       C  0.23642302  0.75316993  0.31706612    -0.14800
H1501       H  0.19368540  0.70795992  0.33465564     0.20500
H1502       H  0.27432920  0.69939397  0.31421247     0.16600
H1503       H  0.24855825  0.64963029  0.33105731     0.19100
H1504       H  0.22222252  0.75999651  0.32124094     0.12400
C1505       C  0.27818151  0.96105035  0.34805217     0.16300
C1506       C  0.28008582  0.98424577  0.35685912    -0.32700
C1507       C  0.25584672  0.98574175  0.35841096     0.20700
C1508       C  0.23091102  0.96516194  0.35142466     0.02900
C1509       C  0.22895932  0.94189915  0.34287143    -0.22500
C1510       C  0.25308552  0.94039623  0.34136144     0.12100
S1511       S  0.30513525  0.95535585  0.34432143    -0.06100
C1512       C  0.28211260  0.92475920  0.33381841    -0.09600
C1513       C  0.25520632  0.91958006  0.33324615    -0.26200
S1514       S  0.20437292  0.97173722  0.35325557    -0.03400
C1515       C  0.22378167  0.50048115  0.36453213    -0.16800
C1516       C  0.24899259  0.50330300  0.36927458    -0.14800
H1517       H  0.29455693  0.49534346  0.36910912     0.20500
H1518       H  0.20954228  0.92587579  0.33732550     0.16600
H1519       H  0.23800887  0.90147105  0.32714748     0.19100
H1520       H  0.26442882  0.52010293  0.37732835     0.12400
C1521       C  0.36847818  0.54956563  0.77754135     0.16300
C1522       C  0.37171302  0.04838899  0.80025292    -0.32700
C1523       C  0.35747670  0.01987870  0.80431808     0.20700
C1524       C  0.35759783  0.49844784  0.79109895     0.02900
C1525       C  0.37309614  0.50831735  0.77539131    -0.22500
C1526       C  0.37840154  0.53423992  0.76889892     0.12100
S1527       S  0.37825932  0.58109605  0.76797922    -0.06100
C1528       C  0.39606390  0.57362960  0.75222760    -0.09600
C1529       C  0.39409855  0.54786656  0.75428491    -0.23800
S1530       S  0.35056143  0.46838936  0.80176785    -0.03400
C1531       C  0.33641399  0.97965095  0.82005272    -0.16800
C1532       C  0.35036659  0.00845407  0.82095832    -0.14800
H1533       H  0.37782286  0.06402891  0.81057803     0.20500
H1534       H  0.38123803  0.49660837  0.76874969     0.16600
H1535       H  0.40414325  0.53980897  0.74578123     0.19100
H1536       H  0.35490246  0.02035165  0.83317042     0.12400
C1537       C  0.26640113  0.53750684  0.85092577     0.16300
C1538       C  0.26745800  0.55853158  0.84007975    -0.32700
C1539       C  0.24479641  0.56274632  0.84052985     0.20700
C1540       C  0.22212161  0.54691819  0.85141017     0.02900
C1541       C  0.22141541  0.52637565  0.86267403    -0.22500
C1542       C  0.24404165  0.52197571  0.86212733     0.12100
S1543       S  0.29016252  0.52690204  0.85045045    -0.06100
C1544       C  0.27229736  0.00225546  0.86570908    -0.09600
C1545       C  0.24860970  0.00207762  0.87132220    -0.26200
S1546       S  0.19603336  0.55427739  0.84914897    -0.03400
C1547       C  0.21607686  0.57909829  0.83352926    -0.16800
C1548       C  0.24157042  0.58140729  0.83038990    -0.14800
H1549       H  0.28477007  0.57041952  0.83118374     0.20500
H1550       H  0.20362225  0.51376052  0.87105509     0.16600
H1551       H  0.23357822  0.98707156  0.88054334     0.19100
H1552       H  0.25682698  0.59578944  0.82101034     0.12400
C1553       C  0.22975916  0.76994806  0.82268568     0.16300
C1554       C  0.22795794  0.79050511  0.83243419    -0.32700
C1555       C  0.25219054  0.81632333  0.83457753     0.20700
C1556       C  0.27715638  0.82161615  0.82726277     0.02900
C1557       C  0.27889216  0.80113348  0.81728215    -0.22500
C1558       C  0.25462089  0.77519704  0.81518466     0.12100
S1559       S  0.20329779  0.73649814  0.82016006    -0.06100
C1560       C  0.22576693  0.72949825  0.80867727    -0.09600
C1561       C  0.25237598  0.75201143  0.80696358    -0.26200
S1562       S  0.30426364  0.85421052  0.83178779    -0.03400
C1563       C  0.28162522  0.86074210  0.84357301    -0.16800
C1564       C  0.25461125  0.83864822  0.84390527    -0.14800
H1565       H  0.20862261  0.78633247  0.83845324     0.20500
H1566       H  0.29839546  0.80505380  0.81169160     0.16600
H1567       H  0.26953791  0.75093042  0.80112398     0.19100
H1568       H  0.23755959  0.83894001  0.85057278     0.12400
C1569       C  0.34040131  0.87414560  0.93486369     0.16300
C1570       C  0.34283825  0.85270226  0.94296481    -0.32700
C1571       C  0.35477813  0.85782562  0.95994054     0.20700
C1572       C  0.36420764  0.88331177  0.96831799     0.02900
C1573       C  0.36169940  0.90467904  0.96025415    -0.22500
C1574       C  0.34935458  0.89939869  0.94344617     0.12100
S1575       S  0.32673420  0.87220989  0.91428955    -0.06100
C1576       C  0.33270421  0.90557283  0.91745562    -0.09600
C1577       C  0.34472703  0.91743267  0.93359880    -0.26200
S1578       S  0.37747623  0.88535919  0.98897736    -0.03400
C1579       C  0.36977820  0.85129316  0.98656452    -0.16800
C1580       C  0.35795224  0.83929564  0.97036136    -0.14800
H1581       H  0.33552762  0.83283484  0.93639635     0.20500
H1582       H  0.36875740  0.92445077  0.96689885     0.16600
H1583       H  0.35035417  0.93834266  0.93772120     0.19100
H1584       H  0.35129844  0.81798024  0.96663275     0.12400
C1585       C  0.49719627  0.64525199  0.05062989     0.16300
C1586       C  0.48773063  0.63956498  0.06834588    -0.32700
C1587       C  0.45953539  0.62020701  0.07129850     0.20700
C1588       C  0.44148148  0.60755437  0.05723733     0.02900
C1589       C  0.45103091  0.61280978  0.03960240    -0.22500
C1590       C  0.47923997  0.63166231  0.03667820     0.12100
S1591       S  0.02716485  0.67244191  0.04348949    -0.06100
C1592       C  0.01800016  0.66102629  0.02190579    -0.09600
C1593       C  0.99067433  0.63980800  0.02004885    -0.26200
S1594       S  0.40792798  0.58545145  0.06349254    -0.03400
C1595       C  0.41832631  0.59253241  0.08534772    -0.16800
C1596       C  0.44640278  0.61134143  0.08749411    -0.14800
H1597       H  0.50172233  0.64972099  0.07934210     0.20500
H1598       H  0.43706102  0.60256488  0.02860600     0.16600
H1599       H  0.98117165  0.63016940  0.00750449     0.19100
H1600       H  0.45662141  0.61817081  0.10024099     0.12400
C1601       C  0.14926306  0.65126007  0.88535874     0.16300
C1602       C  0.14824921  0.66117810  0.90242032    -0.32700
C1603       C  0.12324368  0.65928202  0.90781364     0.20700
C1604       C  0.10043612  0.64806469  0.89666542     0.02900
C1605       C  0.10131481  0.63777070  0.87984353    -0.22500
C1606       C  0.12617096  0.63968235  0.87447989     0.12100
S1607       S  0.17780649  0.65275493  0.87576511    -0.06100
C1608       C  0.15821923  0.63755713  0.85698887    -0.09600
C1609       C  0.13109894  0.63164572  0.85832662    -0.26200
S1610       S  0.07248224  0.64874534  0.90500221    -0.03400
C1611       C  0.09136401  0.66400850  0.92391574    -0.16800
C1612       C  0.11803363  0.66823716  0.92368184    -0.14800
H1613       H  0.16621461  0.67033135  0.91096858     0.20500
H1614       H  0.08349682  0.62907823  0.87116305     0.16600
H1615       H  0.11588531  0.62252602  0.84783441     0.19100
H1616       H  0.13288360  0.67783706  0.93432031     0.12400
C1617       C  0.45491241  0.57069646  0.93087320     0.16300
C1618       C  0.44138520  0.54507698  0.92192306    -0.32700
C1619       C  0.41788822  0.53905948  0.91194192     0.20700
C1620       C  0.40813314  0.55759704  0.91108848     0.02900
C1621       C  0.42167733  0.58321659  0.92000426    -0.22500
C1622       C  0.44527689  0.58931455  0.92985831     0.12100
S1623       S  0.48451557  0.58249373  0.94292156    -0.06100
C1624       C  0.48418350  0.61304241  0.94636960    -0.09600
C1625       C  0.46188547  0.61359398  0.93882507    -0.26200
S1626       S  0.37847430  0.54583110  0.89915142    -0.03400
C1627       C  0.37917643  0.51558213  0.89519941    -0.16800
C1628       C  0.40151020  0.51498995  0.90265331    -0.14800
H1629       H  0.44892338  0.53055108  0.92263181     0.20500
H1630       H  0.41415611  0.59775752  0.91928475     0.16600
H1631       H  0.45872494  0.63131408  0.93914446     0.19100
H1632       H  0.40553162  0.99793517  0.90566659     0.12400
C1633       C  0.13911460  0.81254490  0.91843697     0.16300
C1634       C  0.15405504  0.82853014  0.90368862    -0.32700
C1635       C  0.17895184  0.85324162  0.90696221     0.20700
C1636       C  0.18824246  0.86182573  0.92418121     0.02900
C1637       C  0.17288206  0.84629472  0.93892755    -0.22500
C1638       C  0.14825366  0.82135542  0.93564890     0.12100
S1639       S  0.11029006  0.78041692  0.91717896    -0.06100
C1640       C  0.11060596  0.77877877  0.94007763    -0.09600
C1641       C  0.13170619  0.80220998  0.94818126    -0.26200
S1642       S  0.22019073  0.89067267  0.92542778    -0.03400
C1643       C  0.22117808  0.89118431  0.90250550    -0.16800
C1644       C  0.19765323  0.87032369  0.89439571    -0.14800
H1645       H  0.14721490  0.82138295  0.89025674     0.20500
H1646       H  0.18043504  0.85272145  0.95233742     0.16600
H1647       H  0.13557009  0.80446628  0.96236316     0.19100
H1648       H  0.19509179  0.86688195  0.88017479     0.12400
C1649       C  0.46938143  0.74536146  0.97927814     0.16300
C1650       C  0.44590553  0.74823400  0.97902603    -0.32700
C1651       C  0.44468895  0.76655838  0.99137976     0.20700
C1652       C  0.46625168  0.78209470  0.00303986     0.02900
C1653       C  0.48958000  0.77907482  0.00337037    -0.22500
C1654       C  0.49035869  0.76007047  0.99146074     0.12100
S1655       S  0.97770706  0.72966778  0.96328136    -0.06100
C1656       C  0.00683185  0.73815031  0.97549519    -0.09600
C1657       C  0.51056316  0.75322771  0.99048116    -0.26200
S1658       S  0.46075060  0.80299714  0.01710460    -0.03400
C1659       C  0.42865822  0.78978371  0.00765287    -0.16800
C1660       C  0.42286291  0.77071338  0.99411240    -0.14800
H1661       H  0.93298309  0.74360317  0.96696114     0.20500
H1662       H  0.50611337  0.79053488  0.01280336     0.16600
H1663       H  0.52867231  0.76198084  0.99893430     0.19100
H1664       H  0.40347553  0.76004284  0.98695305     0.12400
C1665       C  0.23222151  0.76639221  0.01433210     0.16300
C1666       C  0.21146088  0.76869846  0.00552279    -0.32700
C1667       C  0.18496492  0.74509776  0.00509038     0.20700
C1668       C  0.17926789  0.72021963  0.01306236     0.02900
C1669       C  0.19995988  0.71806224  0.02219661    -0.22500
C1670       C  0.22652435  0.74174412  0.02267980     0.12100
S1671       S  0.26610169  0.79198312  0.01501357    -0.06100
C1672       C  0.27262765  0.76951737  0.02698656    -0.09600
C1673       C  0.24970202  0.74356048  0.03022372    -0.26200
S1674       S  0.14592106  0.69371022  0.01035729    -0.03400
C1675       C  0.13961834  0.71655005  0.99854606    -0.16800
C1676       C  0.16230327  0.74317101  0.99685587    -0.14800
H1677       H  0.21590598  0.78791931  0.99896369     0.20500
H1678       H  0.19565697  0.69865002  0.02840134     0.16600
H1679       H  0.25026714  0.72654239  0.03688852     0.19100
H1680       H  0.16227081  0.76021773  0.98983848     0.12400
O1681       O  0.53927312  0.22008589  0.98954092    -0.85000
O1682       O  0.56064010  0.19431402  0.00891997    -0.82000
C1683       C  0.54065620  0.16924057  0.00918037     0.98500
O1684       O  0.53674179  0.15316462  0.99624925    -0.82100
O1685       O  0.53069684  0.13605377  0.96156058    -0.84700
C1686       C  0.50970319  0.13759059  0.95725465     1.03000
O1687       O  0.51081598  0.16078002  0.95736882    -0.77500
O1688       O  0.52964374  0.21666024  0.96104633    -0.77700
C1689       C  0.52619097  0.22240549  0.97676512     1.03000
O1690       O  0.58951775  0.25115694  0.96925500    -0.85000
O1691       O  0.61108016  0.22408610  0.98701657    -0.82000
C1692       C  0.61530577  0.20540779  0.99283719     0.98500
O1693       O  0.59590427  0.18035579  0.99299908    -0.82100
O1694       O  0.58905918  0.16989338  0.95618119    -0.84700
C1695       C  0.58078879  0.16970390  0.94047505     1.03000
O1696       O  0.56038794  0.17326741  0.93770854    -0.77500
O1697       O  0.57999820  0.22815238  0.94397016    -0.77600
C1698       C  0.59305857  0.25044226  0.95262131     1.02900
Cr1699     Cr  0.57424523  0.22025224  0.98750706     1.93700
Cr1700     Cr  0.56314226  0.16225269  0.97650204     1.93200
Cr1701     Cr  0.54627788  0.19455149  0.95164407     1.39100
O1702       O  0.56131038  0.19265304  0.97184461    -1.22700
O1703       O  0.77832131  0.46562435  0.85744172    -0.85000
O1704       O  0.80086924  0.44212763  0.83713851    -0.82000
C1705       C  0.82630930  0.46053007  0.83620808     0.98500
O1706       O  0.84235132  0.46532894  0.84913583    -0.82100
O1707       O  0.85866498  0.47234520  0.88419332    -0.84700
C1708       C  0.85632120  0.49308768  0.88867772     1.03000
O1709       O  0.83299944  0.49114057  0.88888012    -0.77500
O1710       O  0.77700451  0.47085079  0.88618333    -0.77700
C1711       C  0.77440238  0.47737323  0.87047177     1.03000
O1712       O  0.74516380  0.41353757  0.87717430    -0.85000
O1713       O  0.77083980  0.39124622  0.85777556    -0.82000
C1714       C  0.78956492  0.38690632  0.85220641     0.98500
O1715       O  0.81463702  0.40600609  0.85288701    -0.82100
O1716       O  0.82503015  0.41287677  0.88878642    -0.84700
C1717       C  0.82551613  0.42028670  0.90467394     1.03000
O1718       O  0.82284205  0.44122607  0.90825757    -0.77500
O1719       O  0.76824212  0.42017966  0.90207572    -0.77600
C1720       C  0.74599188  0.40826267  0.89355856     1.02900
Cr1721     Cr  0.77569390  0.42894906  0.85857861     1.93700
Cr1722     Cr  0.83297236  0.43925448  0.86911255     1.93200
Cr1723     Cr  0.80055889  0.45494647  0.89475747     1.39100
O1724       O  0.80284568  0.44083773  0.87412583    -1.22700
O1725       O  0.77958231  0.31675538  0.31885058    -0.85000
O1726       O  0.80419559  0.36167130  0.34071534    -0.82000
C1727       C  0.82954927  0.36841029  0.34148227     0.98500
O1728       O  0.84585838  0.38147772  0.32877973    -0.82100
O1729       O  0.86307153  0.39512229  0.29376717    -0.84700
C1730       C  0.86137108  0.37284703  0.28799142     1.03000
O1731       O  0.83820596  0.35081581  0.28719272    -0.77500
O1732       O  0.78179345  0.31381269  0.28984259    -0.77700
C1733       C  0.77574801  0.30251349  0.30507310     1.03000
O1734       O  0.74916925  0.33844249  0.30062991    -0.85000
O1735       O  0.77530080  0.38480010  0.32072660    -0.82000
C1736       C  0.79343484  0.40733599  0.32733480     0.98500
O1737       O  0.81841140  0.41335530  0.32734480    -0.82100
O1738       O  0.82914151  0.42051779  0.29079782    -0.84700
C1739       C  0.82952189  0.41461019  0.27458169     1.03000
O1740       O  0.82750591  0.39150818  0.27029666    -0.77500
O1741       O  0.77281555  0.35697915  0.27609635    -0.77600
C1742       C  0.75048740  0.34651418  0.28468598     1.02900
Cr1743     Cr  0.77928116  0.35180923  0.31912305     1.93700
Cr1744     Cr  0.83692661  0.40029687  0.30976122     1.93200
Cr1745     Cr  0.80525506  0.35418038  0.28254071     1.39100
O1746       O  0.80706558  0.36843958  0.30388531    -1.22700
O1747       O  0.54884946  0.30778368  0.19524227    -0.85000
O1748       O  0.53725569  0.34090858  0.17342798    -0.82000
C1749       C  0.53074782  0.35924408  0.17009299     0.98500
O1750       O  0.54116819  0.38194568  0.17882048    -0.82100
O1751       O  0.51733778  0.37434474  0.21182260    -0.84700
C1752       C  0.50774835  0.36086849  0.22608851     1.03000
O1753       O  0.51946654  0.34951197  0.23382509    -0.77500
O1754       O  0.51976406  0.30727984  0.21483807    -0.77700
C1755       C  0.52602073  0.29485870  0.20332340     1.03000
O1756       O  0.60264151  0.35462558  0.20188045    -0.85000
O1757       O  0.59297294  0.38425385  0.17590557    -0.82000
C1758       C  0.60591345  0.40803233  0.18285233     0.98500
O1759       O  0.59580246  0.41362994  0.19609066    -0.82100
O1760       O  0.57047105  0.40619898  0.22808734    -0.84700
C1761       C  0.57995262  0.39807384  0.24051647     1.03000
O1762       O  0.57666693  0.37382295  0.24064016    -0.77500
O1763       O  0.57719577  0.32974657  0.22442173    -0.77600
C1764       C  0.60028351  0.34231061  0.21648385     1.02900
Cr1765     Cr  0.56949660  0.34792724  0.18814588     1.93700
Cr1766     Cr  0.55639768  0.39147250  0.20375205     1.93200
Cr1767     Cr  0.54893269  0.34154133  0.22665810     1.39100
O1768       O  0.55800430  0.36043508  0.20625522    -1.22700
O1769       O  0.80624017  0.04584450  0.14499401    -0.85000
O1770       O  0.83966858  0.03772004  0.16812485    -0.82000
C1771       C  0.85882408  0.03314920  0.17249489     0.98500
O1772       O  0.88176559  0.04469896  0.16421693    -0.82100
O1773       O  0.87279158  0.01604846  0.13331522    -0.84700
C1774       C  0.86113525  0.00543472  0.11880452     1.03000
O1775       O  0.85137917  0.01701036  0.10914667    -0.77500
O1776       O  0.80705605  0.01591167  0.12645069    -0.77700
C1777       C  0.79425665  0.02212657  0.13775212     1.03000
O1778       O  0.85117361  0.10031911  0.13711635    -0.85000
O1779       O  0.88167847  0.09432826  0.16380387    -0.82000
C1780       C  0.90533417  0.10724943  0.15679491     0.98500
O1781       O  0.91123777  0.09666594  0.14391547    -0.82100
O1782       O  0.90417228  0.06649031  0.11341764    -0.84700
C1783       C  0.89743374  0.07758237  0.10116857     1.03000
O1784       O  0.87366295  0.07500012  0.10097210    -0.77500
O1785       O  0.82736699  0.07279169  0.11508671    -0.77600
C1786       C  0.83885071  0.09647928  0.12243417     1.02900
Cr1787     Cr  0.84570815  0.06866444  0.15217844     1.93700
Cr1788     Cr  0.89009054  0.05614447  0.13850929     1.93200
Cr1789     Cr  0.84115631  0.04585626  0.11450659     1.39100
O1790       O  0.85900558  0.05663159  0.13505174    -1.22700
O1791       O  0.81989796  0.28513993  0.02097548    -0.85000
O1792       O  0.86649334  0.31152904  0.00162108    -0.82000
C1793       C  0.87288570  0.33691085  0.00298365     0.98500
O1794       O  0.88411362  0.35059452  0.01690265    -0.82100
O1795       O  0.89070075  0.36101996  0.05269676    -0.84700
C1796       C  0.86715309  0.35737890  0.05695273     1.03000
O1797       O  0.84598628  0.33365128  0.05576276    -0.77500
O1798       O  0.81168039  0.27744725  0.04941198    -0.77700
C1799       C  0.80358456  0.27825872  0.03387295     1.03000
O1800       O  0.83763552  0.24866576  0.03758259    -0.85000
O1801       O  0.88605906  0.27818980  0.01905580    -0.82000
C1802       C  0.90971575  0.29809558  0.01536203     0.98500
O1803       O  0.91602209  0.32304474  0.01835158    -0.82100
O1804       O  0.91695185  0.32757372  0.05491906    -0.84700
C1805       C  0.90883296  0.32581092  0.07078180     1.03000
O1806       O  0.88499931  0.32228300  0.07404054    -0.77500
O1807       O  0.85398684  0.26864020  0.06347470    -0.77600
C1808       C  0.84416341  0.24749884  0.05365253     1.02900
Cr1809     Cr  0.85351608  0.28255169  0.02113968     1.93700
Cr1810     Cr  0.89977354  0.33833503  0.03584036     1.93200
Cr1811     Cr  0.85034685  0.30098202  0.05912302     1.39100
O1812       O  0.86796637  0.30707943  0.03862460    -1.22700
O1813       O  0.71744167  0.18662763  0.81698630    -0.85000
O1814       O  0.69412310  0.14015646  0.83784496    -0.82000
C1815       C  0.66898791  0.13397011  0.83889458     0.98500
O1816       O  0.65294908  0.12305208  0.82580707    -0.82100
O1817       O  0.63554485  0.11075592  0.79055636    -0.84700
C1818       C  0.63782432  0.13334562  0.78493810     1.03000
O1819       O  0.66117748  0.15510025  0.78427552    -0.77500
O1820       O  0.71703570  0.19157000  0.78800503    -0.77700
C1821       C  0.72077021  0.20151724  0.80359326     1.03000
O1822       O  0.74979082  0.16767693  0.79780538    -0.85000
O1823       O  0.72347342  0.11919634  0.81661378    -0.82000
C1824       C  0.70478238  0.09617142  0.82244715     0.98500
O1825       O  0.67993704  0.09065845  0.82296773    -0.82100
O1826       O  0.66835237  0.08460436  0.78688959    -0.84700
C1827       C  0.66845017  0.09104246  0.77077129     1.03000
O1828       O  0.67226678  0.11495400  0.76664383    -0.77500
O1829       O  0.72680191  0.14911240  0.77322515    -0.77600
C1830       C  0.74898415  0.15975070  0.78188283     1.02900
Cr1831     Cr  0.71911603  0.15218771  0.81615538     1.93700
Cr1832     Cr  0.66139211  0.10463991  0.80621741     1.93200
Cr1833     Cr  0.69416236  0.15168679  0.77965159     1.39100
O1834       O  0.69163952  0.13634700  0.80068486    -1.22700
O1835       O  0.94646530  0.18371003  0.69395009    -0.85000
O1836       O  0.95293466  0.14908662  0.67060322    -0.82000
C1837       C  0.95744461  0.12982596  0.66606502     0.98500
O1838       O  0.94787816  0.10736708  0.67503593    -0.82100
O1839       O  0.97507380  0.11510153  0.70698098    -0.84700
C1840       C  0.98452370  0.12623347  0.72188455     1.03000
O1841       O  0.97314331  0.13717081  0.73064140    -0.77500
O1842       O  0.97581462  0.18177883  0.71222706    -0.77700
C1843       C  0.97005480  0.19511940  0.70111502     1.03000
O1844       O  0.89177229  0.13860732  0.70193568    -0.85000
O1845       O  0.89723484  0.10738954  0.67530588    -0.82000
C1846       C  0.88436335  0.08382972  0.68262008     0.98500
O1847       O  0.89538871  0.07776260  0.69502247    -0.82100
O1848       O  0.92342575  0.08451029  0.72559385    -0.84700
C1849       C  0.91282078  0.09224076  0.73763446     1.03000
O1850       O  0.91627124  0.11654401  0.73770324    -0.77500
O1851       O  0.91939960  0.16339511  0.72351563    -0.77600
C1852       C  0.89583714  0.15198189  0.71624130     1.02900
Cr1853     Cr  0.92302726  0.14365230  0.68685009     1.93700
Cr1854     Cr  0.93540895  0.09869827  0.70071909     1.93200
Cr1855     Cr  0.94555504  0.14847919  0.72437388     1.39100
O1856       O  0.93503163  0.13022648  0.70392978    -1.22700
O1857       O  0.96010078  0.27642876  0.48846306    -0.85000
O1858       O  0.93655851  0.29989907  0.50756094    -0.82000
C1859       C  0.95661575  0.32480364  0.50771936     0.98500
O1860       O  0.96160419  0.34023700  0.49426808    -0.82100
O1861       O  0.96844236  0.35549690  0.45903464    -0.84700
C1862       C  0.98870178  0.35253800  0.45468129     1.03000
O1863       O  0.98632701  0.32879098  0.45490838    -0.77500
O1864       O  0.96513175  0.27254170  0.45990976    -0.77700
C1865       C  0.97220792  0.27225114  0.47583539     1.03000
O1866       O  0.90883359  0.24161275  0.46906748    -0.85000
O1867       O  0.88682950  0.26896280  0.48640788    -0.82000
C1868       C  0.88297126  0.28826190  0.49159878     0.98500
O1869       O  0.90230268  0.31340662  0.49067427    -0.82100
O1870       O  0.90967948  0.32318874  0.45413519    -0.84700
C1871       C  0.91768138  0.32303817  0.43840184     1.03000
O1872       O  0.93725155  0.31816126  0.43548125    -0.77500
O1873       O  0.91490797  0.26298630  0.44340245    -0.77600
C1874       C  0.90269428  0.24133943  0.45278823     1.02900
Cr1875     Cr  0.92390437  0.27349364  0.48661956     1.93700
Cr1876     Cr  0.93543591  0.33083411  0.47431526     1.93200
Cr1877     Cr  0.94992579  0.29589370  0.44994196     1.39100
O1878       O  0.93609824  0.29983509  0.47021060    -1.22700
O1879       O  0.71115029  0.03588246  0.35306870    -0.85000
O1880       O  0.68633868  0.05863730  0.33393711    -0.82000
C1881       C  0.66140394  0.03907166  0.33447273     0.98500
O1882       O  0.64696269  0.03493852  0.34825884    -0.82100
O1883       O  0.63444413  0.02937896  0.38365570    -0.84700
C1884       C  0.63749961  0.00921882  0.38841532     1.03000
O1885       O  0.66111452  0.01159666  0.38825772    -0.77500
O1886       O  0.71726332  0.03364526  0.38159774    -0.77700
C1887       C  0.71721819  0.02551169  0.36588364     1.03000
O1888       O  0.74661334  0.08928628  0.37070838    -0.85000
O1889       O  0.71826104  0.11001007  0.35290234    -0.82000
C1890       C  0.69871925  0.11396746  0.34883546     0.98500
O1891       O  0.67382931  0.09510262  0.35131311    -0.82100
O1892       O  0.66608968  0.08871393  0.38789237    -0.84700
C1893       C  0.66753946  0.08147741  0.40361016     1.03000
O1894       O  0.67272629  0.06203111  0.40639810    -0.77500
O1895       O  0.72665383  0.08505740  0.39666939    -0.77600
C1896       C  0.74778798  0.09639753  0.38690033     1.02900
Cr1897     Cr  0.71378527  0.07260729  0.35401959     1.93700
Cr1898     Cr  0.65768468  0.06210662  0.36792153     1.93200
Cr1899     Cr  0.69405100  0.04898116  0.39159423     1.39100
O1900       O  0.68867852  0.06152695  0.37119591    -1.22700
O1901       O  0.67651814  0.46392284  0.65591027    -0.85000
O1902       O  0.62797394  0.44198839  0.67382777    -0.82000
C1903       C  0.62042599  0.46010044  0.67308453     0.98500
O1904       O  0.60959430  0.46306947  0.65917662    -0.82100
O1905       O  0.60294821  0.46785358  0.62343179    -0.84700
C1906       C  0.62545197  0.48905988  0.61892221     1.03000
O1907       O  0.64786693  0.48912927  0.62047994    -0.77500
O1908       O  0.68539712  0.47173539  0.62741506    -0.77700
C1909       C  0.69323852  0.47628578  0.64343917     1.03000
O1910       O  0.65913879  0.41188110  0.63748718    -0.85000
O1911       O  0.60987069  0.39011409  0.65422227    -0.82000
C1912       C  0.58610370  0.38519458  0.65829685     0.98500
O1913       O  0.57963686  0.40374933  0.65635547    -0.82100
O1914       O  0.58027808  0.40926077  0.61952322    -0.84700
C1915       C  0.58924892  0.41739469  0.60393790     1.03000
O1916       O  0.61330054  0.43809147  0.60139427    -0.77500
O1917       O  0.64818375  0.41966763  0.61083084    -0.77600
C1918       C  0.65588367  0.40683283  0.62093588     1.02900
Cr1919     Cr  0.64225760  0.42786544  0.65398428     1.93700
Cr1920     Cr  0.59568344  0.43614131  0.63948041     1.93200
Cr1921     Cr  0.64733771  0.45365035  0.61670754     1.39100
O1922       O  0.62863459  0.43919966  0.63675487    -1.22700
O1923       O  0.68226558  0.21986519  0.52275936    -0.85000
O1924       O  0.63531569  0.19743984  0.50300934    -0.82000
C1925       C  0.62922327  0.17212952  0.50252427     0.98500
O1926       O  0.61879468  0.15667801  0.51595732    -0.82100
O1927       O  0.60990663  0.14101271  0.55097070    -0.84700
C1928       C  0.63303174  0.14369993  0.55516379     1.03000
O1929       O  0.65427472  0.16750281  0.55596750    -0.77500
O1930       O  0.68948753  0.22380219  0.55150993    -0.77700
C1931       C  0.69789029  0.22437690  0.53581199     1.03000
O1932       O  0.66600377  0.25509156  0.54183234    -0.85000
O1933       O  0.61695022  0.22881746  0.52423521    -0.82000
C1934       C  0.59374915  0.20994899  0.51889878     0.98500
O1935       O  0.58735977  0.18459967  0.51965764    -0.82100
O1936       O  0.58367849  0.17369415  0.55619489    -0.84700
C1937       C  0.59137115  0.17351738  0.57197572     1.03000
O1938       O  0.61560617  0.17813537  0.57500916    -0.77500
O1939       O  0.64826021  0.23349147  0.56711485    -0.77600
C1940       C  0.65899538  0.25539558  0.55786737     1.02900
Cr1941     Cr  0.64907866  0.22343267  0.52416061     1.93700
Cr1942     Cr  0.60213244  0.16626185  0.53597453     1.93200
Cr1943     Cr  0.65071142  0.20047459  0.56088768     1.39100
O1944       O  0.63390768  0.19686250  0.54037939    -1.22700
C1945       C  0.61334793  0.03773447  0.58996295     0.16300
C1946       C  0.60139891  0.05139305  0.58135661    -0.32700
C1947       C  0.61921445  0.07689995  0.57315848     0.20700
C1948       C  0.64766785  0.08811229  0.57319949     0.02900
C1949       C  0.65958279  0.07397999  0.58135004    -0.22500
C1950       C  0.64177092  0.04872074  0.58991776     0.12100
S1951       S  0.59527521  0.00756032  0.60162902    -0.06100
C1952       C  0.62631000  0.00967839  0.60659297    -0.09600
C1953       C  0.64937547  0.03256354  0.59939677    -0.26200
S1954       S  0.66581943  0.12073446  0.56423932    -0.03400
C1955       C  0.63472058  0.11926929  0.56065078    -0.16800
C1956       C  0.61163646  0.09448008  0.56568291    -0.14800
H1957       H  0.57922976  0.04301386  0.58162226     0.20500
H1958       H  0.68181237  0.08283724  0.58163495     0.16600
H1959       H  0.67046454  0.03702184  0.60092322     0.19100
H1960       H  0.59054022  0.09031057  0.56504107     0.12400
C1961       C  0.66037726  0.34323527  0.60626071     0.16300
C1962       C  0.65816854  0.31705188  0.60490084    -0.32700
C1963       C  0.66175660  0.30853013  0.58804862     0.20700
C1964       C  0.66772582  0.32540432  0.57317188     0.02900
C1965       C  0.66984244  0.35163008  0.57451075    -0.22500
C1966       C  0.66577374  0.35996830  0.59136305     0.12100
S1967       S  0.65563277  0.35679597  0.62545105    -0.06100
C1968       C  0.66039075  0.38509478  0.61325126    -0.09600
C1969       C  0.66561501  0.38399733  0.59528617    -0.26200
S1970       S  0.67069174  0.31070639  0.55387182    -0.03400
C1971       C  0.66320111  0.28135864  0.56600270    -0.16800
C1972       C  0.65911270  0.28329988  0.58401759    -0.14800
H1973       H  0.65334942  0.30366345  0.61643048     0.20500
H1974       H  0.67393641  0.36470410  0.56289720     0.16600
H1975       H  0.66854994  0.39967607  0.58556859     0.19100
H1976       H  0.65381195  0.26680735  0.59363095     0.12400
C1977       C  0.65265153  0.10609481  0.44784757     0.16300
C1978       C  0.64724751  0.10901642  0.46567258    -0.32700
C1979       C  0.64268672  0.13093864  0.46998906     0.20700
C1980       C  0.64378962  0.14946270  0.45719051     0.02900
C1981       C  0.64895779  0.14637128  0.43924603    -0.22500
C1982       C  0.65325225  0.12416461  0.43487374     0.12100
S1983       S  0.65881665  0.08084915  0.44014023    -0.06100
C1984       C  0.66196375  0.09436163  0.41906630    -0.09600
C1985       C  0.65845928  0.11742560  0.41822473    -0.26200
S1986       S  0.63859356  0.17526587  0.46546533    -0.03400
C1987       C  0.63434835  0.16047930  0.48626843    -0.16800
C1988       C  0.63706650  0.13699310  0.48660686    -0.14800
H1989       H  0.64663297  0.09478312  0.47576700     0.20500
H1990       H  0.64966255  0.16065367  0.42916629     0.16600
H1991       H  0.65972370  0.12864588  0.40614666     0.19100
H1992       H  0.63549430  0.12521900  0.49848661     0.12400
C1993       C  0.99782732  0.34561593  0.55162031     0.16300
C1994       C  0.00768394  0.34804462  0.56910679    -0.32700
C1995       C  0.53452817  0.37266405  0.57249218     0.20700
C1996       C  0.54779319  0.39484814  0.56073249     0.02900
C1997       C  0.53695138  0.39390261  0.54384082    -0.22500
C1998       C  0.51233968  0.36976765  0.53922098     0.12100
S1999       S  0.96669649  0.31941514  0.54393111    -0.06100
C2000       C  0.97460139  0.33591851  0.52350412    -0.09600
C2001       C  0.49852623  0.36521340  0.52348330    -0.26200
S2002       S  0.57709719  0.42260742  0.56884148    -0.03400
C2003       C  0.57123300  0.40452005  0.58848830    -0.16800
C2004       C  0.54785082  0.37818025  0.58857383    -0.14800
H2005       H  0.99547948  0.33279485  0.57918796     0.20500
H2006       H  0.54713532  0.41135753  0.53474296     0.16600
H2007       H  0.50539062  0.38002213  0.51259495     0.19100
H2008       H  0.54090734  0.36400419  0.59980119     0.12400
C2009       C  0.55629228  0.40682254  0.43165058     0.16300
C2010       C  0.58123723  0.41955692  0.42215269    -0.32700
C2011       C  0.58875577  0.44479118  0.41357383     0.20700
C2012       C  0.57217706  0.45677336  0.41444723     0.02900
C2013       C  0.54748083  0.44427349  0.42414152    -0.22500
C2014       C  0.53997293  0.41907631  0.43269338     0.12100
S2015       S  0.54243841  0.37513340  0.44177448    -0.06100
C2016       C  0.51432044  0.37842452  0.44732733    -0.09600
C2017       C  0.51601473  0.40305609  0.44191434    -0.26200
S2018       S  0.58479962  0.48739480  0.40326679    -0.03400
C2019       C  0.61303207  0.48437828  0.39759830    -0.16800
C2020       C  0.61236784  0.46061136  0.40389033    -0.14800
H2021       H  0.59400826  0.41003723  0.42128619     0.20500
H2022       H  0.53453633  0.45361892  0.42481959     0.16600
H2023       H  0.99746876  0.40381336  0.44183959     0.19100
H2024       H  0.62861619  0.45565760  0.40197146     0.12400
C2025       C  0.83818190  0.17551684  0.43667086     0.16300
C2026       C  0.81164992  0.15237975  0.43486730    -0.32700
C2027       C  0.80218016  0.14291425  0.41760832     0.20700
C2028       C  0.81842119  0.15548658  0.40271739     0.02900
C2029       C  0.84498697  0.17876342  0.40451264    -0.22500
C2030       C  0.85429990  0.18855053  0.42180273     0.12100
S2031       S  0.85285764  0.19102738  0.45644935    -0.06100
C2032       C  0.88070784  0.21580695  0.44454205    -0.09600
C2033       C  0.87872709  0.21176407  0.42625698    -0.26200
S2034       S  0.80273492  0.14062862  0.38294319    -0.03400
C2035       C  0.77391640  0.11761100  0.39496624    -0.16800
C2036       C  0.77668493  0.12136660  0.41324008    -0.14800
H2037       H  0.79872258  0.14247405  0.44640817     0.20500
H2038       H  0.85763806  0.18909935  0.39294653     0.16600
H2039       H  0.89397597  0.22564957  0.41668965     0.19100
H2040       H  0.76070472  0.10903057  0.42288728     0.12400
C2041       C  0.54274325  0.22368780  0.49324687     0.16300
C2042       C  0.52277396  0.22317490  0.48176249    -0.32700
C2043       C  0.51728925  0.24518326  0.48299080     0.20700
C2044       C  0.53112070  0.26668698  0.49511945     0.02900
C2045       C  0.55158665  0.26761310  0.50619809    -0.22500
C2046       C  0.55699101  0.24564321  0.50498831     0.12100
S2047       S  0.55146046  0.19831248  0.49458324    -0.06100
C2048       C  0.57480529  0.21783602  0.51088751    -0.09600
C2049       C  0.57562335  0.24255620  0.51499602    -0.26200
S2050       S  0.01786766  0.28628793  0.49660450    -0.03400
C2051       C  0.99460112  0.26708399  0.48024150    -0.16800
C2052       C  0.49727461  0.24750443  0.47392346    -0.14800
H2053       H  0.51150119  0.20602683  0.47262750     0.20500
H2054       H  0.56225767  0.28431221  0.51572849     0.16600
H2055       H  0.58905394  0.25739896  0.52487005     0.19100
H2056       H  0.48314627  0.23239348  0.46443197     0.12400
C2057       C  0.81755232  0.27926073  0.51429623     0.16300
C2058       C  0.79711706  0.28265270  0.52279584    -0.32700
C2059       C  0.77141731  0.25865068  0.52584561     0.20700
C2060       C  0.76634368  0.23241871  0.52078144     0.02900
C2061       C  0.78692295  0.22898295  0.51260924    -0.22500
C2062       C  0.81247508  0.25298978  0.50939916     0.12100
S2063       S  0.84969773  0.30581413  0.50864001    -0.06100
C2064       C  0.85625574  0.28118719  0.49958632    -0.09600
C2065       C  0.83461862  0.25395419  0.50100337    -0.26200
S2066       S  0.73314465  0.20625167  0.52407415    -0.03400
C2067       C  0.72616473  0.23087840  0.53246579    -0.16800
C2068       C  0.74835648  0.25782715  0.53277038    -0.14800
H2069       H  0.80084178  0.30313903  0.52645176     0.20500
H2070       H  0.78293405  0.20859516  0.50845248     0.16600
H2071       H  0.83504065  0.23580275  0.49610207     0.19100
H2072       H  0.74722093  0.27596059  0.53683460     0.12400
C2073       C  0.99781841  0.14802191  0.62205753     0.16300
C2074       C  0.00961331  0.15867332  0.60530989    -0.32700
C2075       C  0.53290206  0.15739634  0.60208839     0.20700
C2076       C  0.54747699  0.15191920  0.61479189     0.02900
C2077       C  0.53657871  0.14276397  0.63191941    -0.22500
C2078       C  0.51067076  0.13977791  0.63582422     0.12100
S2079       S  0.97109189  0.15031719  0.63128714    -0.06100
C2080       C  0.97384734  0.13369987  0.64988243    -0.09600
C2081       C  0.49695428  0.13185509  0.65186501    -0.26200
S2082       S  0.57874043  0.15726349  0.60758281    -0.03400
C2083       C  0.57194043  0.16637131  0.58706281    -0.16800
C2084       C  0.54675204  0.16552520  0.58608521    -0.14800
H2085       H  0.00139879  0.16845578  0.59675446     0.20500
H2086       H  0.54791918  0.13839913  0.64181773     0.16600
H2087       H  0.50469345  0.12681160  0.66363531     0.19100
H2088       H  0.53902110  0.17060548  0.57432928     0.12400
C2089       C  0.52675451  0.26896373  0.68948608     0.16300
C2090       C  0.55214821  0.29240825  0.68516044    -0.32700
C2091       C  0.55169886  0.31548064  0.67800507     0.20700
C2092       C  0.52717824  0.31560055  0.67564303     0.02900
C2093       C  0.00439520  0.29110307  0.67929133    -0.22500
C2094       C  0.50216147  0.26876925  0.68666644     0.12100
S2095       S  0.52281076  0.23848346  0.69770091    -0.06100
C2096       C  0.99025428  0.22411483  0.69645362    -0.09600
C2097       C  0.98232271  0.24277040  0.69064910    -0.26200
S2098       S  0.53119330  0.34574717  0.66673764    -0.03400
C2099       C  0.56618478  0.35790192  0.66575649    -0.16800
C2100       C  0.57412227  0.33964252  0.67226968    -0.14800
H2101       H  0.57138842  0.29248160  0.68697672     0.20500
H2102       H  0.98519061  0.29125613  0.67800196     0.16600
H2103       H  0.96113297  0.23828799  0.68993951     0.19100
H2104       H  0.59521742  0.34378535  0.67268605     0.12400
C2105       C  0.80826029  0.02956338  0.67473649     0.16300
C2106       C  0.78054141  0.00850196  0.67631852    -0.32700
C2107       C  0.76221800  0.00684924  0.66304028     0.20700
C2108       C  0.77107662  0.02496606  0.64864407     0.02900
C2109       C  0.79872726  0.04620171  0.64717304    -0.22500
C2110       C  0.81697631  0.04812715  0.66057966     0.12100
S2111       S  0.83365154  0.03563147  0.68966540    -0.06100
C2112       C  0.85607714  0.06385253  0.67687827    -0.09600
C2113       C  0.84436594  0.06789248  0.66177426    -0.26200
S2114       S  0.74575597  0.01875340  0.63359117    -0.03400
C2115       C  0.72249935  0.49507676  0.64787785    -0.16800
C2116       C  0.73374425  0.49250675  0.66367771    -0.14800
H2117       H  0.77351696  0.99416404  0.68747153     0.20500
H2118       H  0.80570311  0.06068016  0.63609727     0.16600
H2119       H  0.85518106  0.08483016  0.65237919     0.19100
H2120       H  0.72229803  0.47726056  0.67394993     0.12400
C2121       C  0.65390772  0.03048712  0.73900541     0.16300
C2122       C  0.64872041  0.00532096  0.73109640    -0.32700
C2123       C  0.64151384  0.00129953  0.71298162     0.20700
C2124       C  0.63962647  0.02149766  0.70323993     0.02900
C2125       C  0.64530350  0.04679525  0.71104380    -0.22500
C2126       C  0.65241910  0.05077522  0.72911274     0.12100
S2127       S  0.66167181  0.03896765  0.76095662    -0.06100
C2128       C  0.66301832  0.07021906  0.75672659    -0.09600
C2129       C  0.65786424  0.07367583  0.73914019    -0.26200
S2130       S  0.61579353  0.50411478  0.68697879    -0.03400
C2131       C  0.62449755  0.47847169  0.68836082    -0.16800
C2132       C  0.63749043  0.47859853  0.70411597    -0.14800
H2133       H  0.64989131  0.98944527  0.73877549     0.20500
H2134       H  0.64387056  0.06256157  0.70340594     0.16600
H2135       H  0.65752540  0.09174986  0.73403082     0.19100
H2136       H  0.64489353  0.46441614  0.70718639     0.12400
C2137       C  0.54053724  0.11700342  0.74050757     0.16300
C2138       C  0.55741035  0.10623467  0.74569520    -0.32700
C2139       C  0.57745435  0.12079907  0.75878510     0.20700
C2140       C  0.58099722  0.14534541  0.76609948     0.02900
C2141       C  0.56382214  0.15584130  0.76113189    -0.22500
C2142       C  0.54343317  0.14098870  0.74830376     0.12100
S2143       S  0.51470797  0.10226343  0.72505164    -0.06100
C2144       C  0.50718010  0.12821648  0.72954039    -0.09600
C2145       C  0.52422569  0.14739065  0.74216700    -0.26200
S2146       S  0.60783248  0.16100397  0.78079403    -0.03400
C2147       C  0.61375556  0.13372841  0.77748405    -0.16800
C2148       C  0.59593811  0.11379453  0.76550134    -0.14800
H2149       H  0.55498713  0.08730108  0.73981415     0.20500
H2150       H  0.56627271  0.17479879  0.76699156     0.16600
H2151       H  0.52230444  0.16481109  0.74686062     0.19100
H2152       H  0.59727326  0.09580183  0.76134174     0.12400
C2153       C  0.81786963  0.16916686  0.76413405     0.16300
C2154       C  0.84499665  0.17459589  0.76144668    -0.32700
C2155       C  0.85066642  0.16485761  0.74560749     0.20700
C2156       C  0.83029055  0.15047253  0.73301200     0.02900
C2157       C  0.80334834  0.14526857  0.73563188    -0.22500
C2158       C  0.79768861  0.15489557  0.75142227     0.12100
S2159       S  0.80616866  0.17813387  0.78268598    -0.06100
C2160       C  0.77383449  0.16249880  0.77308255    -0.09600
C2161       C  0.77255820  0.15114304  0.75642990    -0.26200
S2162       S  0.84085454  0.13950223  0.71498647    -0.03400
C2163       C  0.87318561  0.15441520  0.72442827    -0.16800
C2164       C  0.87543438  0.16727956  0.74070485    -0.14800
H2165       H  0.86087663  0.18557735  0.77135489     0.20500
H2166       H  0.78734412  0.13385268  0.72586523     0.16600
H2167       H  0.75397037  0.14012856  0.74849579     0.19100
H2168       H  0.89403209  0.17734139  0.74869126     0.12400
C2169       C  0.87769767  0.45124842  0.10296000     0.16300
C2170       C  0.89062598  0.43712496  0.09627088    -0.32700
C2171       C  0.87588442  0.41571696  0.08399579     0.20700
C2172       C  0.84913264  0.40807087  0.07900754     0.02900
C2173       C  0.83625031  0.42226770  0.08563229    -0.22500
C2174       C  0.85129873  0.44420568  0.09751080     0.12100
S2175       S  0.89291582  0.47923726  0.11689208    -0.06100
C2176       C  0.86388315  0.48218119  0.11470128    -0.09600
C2177       C  0.84325078  0.46191629  0.10422183    -0.26200
S2178       S  0.83421816  0.38056054  0.06469936    -0.03400
C2179       C  0.86461802  0.37986984  0.06513698    -0.16800
C2180       C  0.88505078  0.39983525  0.07584431    -0.14800
H2181       H  0.91146864  0.44293674  0.10018402     0.20500
H2182       H  0.81558487  0.41676178  0.08148385     0.16600
H2183       H  0.82402848  0.46112515  0.10091771     0.19100
H2184       H  0.90504511  0.40175854  0.07816846     0.12400
C2185       C  0.84441055  0.16312722  0.10400699     0.16300
C2186       C  0.85089026  0.19050460  0.10094401    -0.32700
C2187       C  0.84404363  0.19667371  0.08437868     0.20700
C2188       C  0.83118532  0.17669721  0.07125875     0.02900
C2189       C  0.82446993  0.14902499  0.07437188    -0.22500
C2190       C  0.83145059  0.14281459  0.09105603     0.12100
S2191       S  0.85223500  0.15205443  0.12308260    -0.06100
C2192       C  0.83791317  0.11955072  0.11363329    -0.09600
C2193       C  0.82752677  0.11757337  0.09658510    -0.26200
S2194       S  0.82528777  0.18937476  0.05190873    -0.03400
C2195       C  0.84034726  0.22172986  0.06187331    -0.16800
C2196       C  0.84925949  0.22223932  0.07911632    -0.14800
H2197       H  0.86116844  0.20646286  0.11099146     0.20500
H2198       H  0.81456180  0.13316421  0.06423414     0.16600
H2199       H  0.81831941  0.09887866  0.08850490     0.19100
H2200       H  0.85932078  0.24060605  0.08748565     0.12400
C2201       C  0.97849854  0.35448885  0.13782038     0.16300
C2202       C  0.95811018  0.35697870  0.12851990    -0.32700
C2203       C  0.94928191  0.34316770  0.11211658     0.20700
C2204       C  0.96053308  0.32786173  0.10517309     0.02900
C2205       C  0.98038007  0.32476960  0.11469606    -0.22500
C2206       C  0.98897611  0.33831072  0.13119438     0.12100
S2207       S  0.48606135  0.36419186  0.15792760    -0.06100
C2208       C  0.51070112  0.35437409  0.15581923    -0.09600
C2209       C  0.00831757  0.33810096  0.14233493    -0.26200
S2210       S  0.94845128  0.31426562  0.08453637    -0.03400
C2211       C  0.92744557  0.32866656  0.08547488    -0.16800
C2212       C  0.92990695  0.34331086  0.10098298    -0.14800
H2213       H  0.94972974  0.36941089  0.13374418     0.20500
H2214       H  0.98900766  0.31262074  0.10936902     0.16600
H2215       H  0.01907618  0.32678748  0.13974459     0.19100
H2216       H  0.91863304  0.35406006  0.10374025     0.12400
C2217       C  0.96471052  0.17915857  0.17066475     0.16300
C2218       C  0.98952866  0.20449702  0.17232609    -0.32700
C2219       C  0.99022466  0.22401310  0.18448609     0.20700
C2220       C  0.96737055  0.21863270  0.19468784     0.02900
C2221       C  0.94257557  0.19314395  0.19314344    -0.22500
C2222       C  0.94182518  0.17366244  0.18087867     0.12100
S2223       S  0.95933067  0.15317873  0.15614925    -0.06100
C2224       C  0.92586259  0.13465300  0.16393435    -0.09600
C2225       C  0.91949933  0.14809888  0.17711061    -0.26200
S2226       S  0.97238001  0.24565649  0.20819913    -0.03400
C2227       C  0.50722647  0.26525215  0.19919192    -0.16800
C2228       C  0.51414649  0.25076818  0.18713688    -0.14800
H2229       H  0.00741620  0.20900006  0.16428146     0.20500
H2230       H  0.92453693  0.18884161  0.20095303     0.16600
H2231       H  0.89942360  0.13978087  0.18340743     0.19100
H2232       H  0.53377358  0.25939702  0.18020665     0.12400
C2233       C  0.71815072  0.46900392  0.14639391     0.16300
C2234       C  0.69188832  0.44495884  0.14697434    -0.32700
C2235       C  0.67242546  0.44455224  0.15902133     0.20700
C2236       C  0.67868572  0.46711780  0.16993403     0.02900
C2237       C  0.70481468  0.49129156  0.16918968    -0.22500
C2238       C  0.72433020  0.49160823  0.15724378     0.12100
S2239       S  0.74513559  0.47325377  0.13329352    -0.06100
C2240       C  0.76520117  0.00261079  0.14271527    -0.09600
C2241       C  0.75136403  0.00996449  0.15497730    -0.26200
S2242       S  0.65269140  0.46187387  0.18430188    -0.03400
C2243       C  0.63315883  0.42885195  0.17556426    -0.16800
C2244       C  0.64629445  0.42264036  0.16210822    -0.14800
H2245       H  0.68700208  0.42712422  0.13864866     0.20500
H2246       H  0.71076887  0.00733865  0.17748630     0.16600
H2247       H  0.76016521  0.03004045  0.16152268     0.19100
H2248       H  0.63752103  0.40275043  0.15533703     0.12400
C2249       C  0.60887124  0.43918636  0.28379939     0.16300
C2250       C  0.61444051  0.44794314  0.30156552    -0.32700
C2251       C  0.62951954  0.47673037  0.30485784     0.20700
C2252       C  0.63926360  0.49600346  0.29108381     0.02900
C2253       C  0.63321907  0.48725457  0.27331504    -0.22500
C2254       C  0.61758061  0.45845469  0.27004186     0.12100
S2255       S  0.59072321  0.40518886  0.27704247    -0.06100
C2256       C  0.59404508  0.41704139  0.25549904    -0.09600
C2257       C  0.60883136  0.44585206  0.25376660    -0.26200
S2258       S  0.66090624  0.03098910  0.29758060    -0.03400
C2259       C  0.64929104  0.02064786  0.31901612    -0.16800
C2260       C  0.62888359  0.99289863  0.32070606    -0.14800
H2261       H  0.60724017  0.43297360  0.31236014     0.20500
H2262       H  0.64033815  0.50222525  0.26252286     0.16600
H2263       H  0.61272324  0.45695248  0.24127201     0.19100
H2264       H  0.61969214  0.98265196  0.33320244     0.12400
C2265       C  0.84830430  0.34398667  0.38481118     0.16300
C2266       C  0.84883638  0.33273316  0.40149607    -0.32700
C2267       C  0.87385686  0.33477130  0.40693113     0.20700
C2268       C  0.89711739  0.34710776  0.39609390     0.02900
C2269       C  0.89664317  0.35853871  0.37955547    -0.22500
C2270       C  0.87180418  0.35677935  0.37422650     0.12100
S2271       S  0.82007805  0.34351115  0.37556625    -0.06100
C2272       C  0.84030040  0.36106863  0.35735550    -0.09600
C2273       C  0.86738965  0.36665516  0.35856692    -0.26200
S2274       S  0.92521317  0.34686250  0.40467418    -0.03400
C2275       C  0.90576162  0.33041833  0.42328843    -0.16800
C2276       C  0.87879513  0.32539921  0.42271239    -0.14800
H2277       H  0.83057555  0.32283069  0.40985680     0.20500
H2278       H  0.91488000  0.36834614  0.37116234     0.16600
H2279       H  0.88303749  0.37716036  0.34839854     0.19100
H2280       H  0.86359577  0.31518314  0.43316045     0.12400
C2281       C  0.85317469  0.97947551  0.20695274     0.16300
C2282       C  0.85580457  0.46179807  0.21582527    -0.32700
C2283       C  0.84475127  0.45510688  0.23307690     0.20700
C2284       C  0.83296592  0.46917202  0.24110641     0.02900
C2285       C  0.83085694  0.49008312  0.23183185    -0.22500
C2286       C  0.84174934  0.49663759  0.21443670     0.12100
S2287       S  0.86918414  0.99304901  0.18708026    -0.06100
C2288       C  0.85461814  0.01399695  0.18728556    -0.09600
C2289       C  0.84209122  0.51648539  0.20322081    -0.26200
S2290       S  0.82209425  0.45866341  0.26254898    -0.03400
C2291       C  0.83303013  0.43470299  0.26044534    -0.16800
C2292       C  0.84448134  0.43512829  0.24397112    -0.14800
H2293       H  0.86657905  0.94942867  0.21127047     0.20500
H2294       H  0.82142545  0.50096162  0.23796816     0.16600
H2295       H  0.83332091  0.52947949  0.20642920     0.19100
H2296       H  0.85251223  0.42167662  0.24022239     0.12400
C2297       C  0.92683431  0.38480412  0.26387097     0.16300
C2298       C  0.95101567  0.39559389  0.25359198    -0.32700
C2299       C  0.95901947  0.37684679  0.24738177     0.20700
C2300       C  0.94398593  0.34869287  0.25158608     0.02900
C2301       C  0.91956339  0.33782709  0.26164629    -0.22500
C2302       C  0.91124431  0.35650045  0.26753891     0.12100
S2303       S  0.91336239  0.40404679  0.27226724    -0.06100
C2304       C  0.88595241  0.37355392  0.28034013    -0.09600
C2305       C  0.88761130  0.34986831  0.27689603    -0.26200
S2306       S  0.95832833  0.32978823  0.24394333    -0.03400
C2307       C  0.98434374  0.35996171  0.23450618    -0.16800
C2308       C  0.98200214  0.38336467  0.23732558    -0.14800
H2309       H  0.96301443  0.41763411  0.25051276     0.20500
H2310       H  0.90758128  0.31579284  0.26474674     0.16600
H2311       H  0.87203642  0.32887665  0.28064838     0.19100
H2312       H  0.99705431  0.40424219  0.23301777     0.12400
C2313       C  0.68177152  0.33595500  0.26644000     0.16300
C2314       C  0.65447996  0.32957679  0.26357386    -0.32700
C2315       C  0.64815466  0.33650830  0.24697470     0.20700
C2316       C  0.66803353  0.34934891  0.23379834     0.02900
C2317       C  0.69530090  0.35564689  0.23664576    -0.22500
C2318       C  0.70159986  0.34861375  0.25321509     0.12100
S2319       S  0.69381753  0.32943883  0.28568962    -0.06100
C2320       C  0.72586008  0.34372870  0.27571836    -0.09600
C2321       C  0.72687928  0.35311518  0.25846445    -0.26200
S2322       S  0.65625108  0.35683036  0.21478904    -0.03400
C2323       C  0.62416065  0.34236313  0.22470272    -0.16800
C2324       C  0.62295961  0.33232881  0.24179217    -0.14800
H2325       H  0.63886866  0.31973803  0.27385005     0.20500
H2326       H  0.71097118  0.36571841  0.22642966     0.16600
H2327       H  0.74525444  0.36286813  0.25018007     0.19100
H2328       H  0.60469401  0.32302353  0.25018276     0.12400
C2329       C  0.71063230  0.18443469  0.33225805     0.16300
C2330       C  0.71172764  0.21006866  0.33024976    -0.32700
C2331       C  0.73311231  0.23043699  0.31973037     0.20700
C2332       C  0.75193223  0.22526550  0.31095965     0.02900
C2333       C  0.75077913  0.19959569  0.31293493    -0.22500
C2334       C  0.73010613  0.17964193  0.32405539     0.12100
S2335       S  0.68757546  0.15769331  0.34551737    -0.06100
C2336       C  0.70519266  0.14051501  0.34055062    -0.09600
C2337       C  0.72718690  0.15453498  0.32888644    -0.26200
S2338       S  0.77701051  0.25320765  0.29939870    -0.03400
C2339       C  0.76257620  0.27222570  0.30710687    -0.16800
C2340       C  0.73925622  0.25742387  0.31763729    -0.14800
H2341       H  0.69722520  0.21434123  0.33713677     0.20500
H2342       H  0.76599891  0.19575231  0.30666230     0.16600
H2343       H  0.74064077  0.14693030  0.32444764     0.19100
H2344       H  0.72801644  0.26630829  0.32396466     0.12400
C2345       C  0.77726242  0.45852713  0.35157615     0.16300
C2346       C  0.77689793  0.47940394  0.36194776    -0.32700
C2347       C  0.75311902  0.48188371  0.36115982     0.20700
C2348       C  0.73079346  0.46436743  0.35053063     0.02900
C2349       C  0.73090066  0.44318781  0.34057798    -0.22500
C2350       C  0.75457519  0.44080169  0.34132087     0.12100
S2351       S  0.80443588  0.45259157  0.34982195    -0.06100
C2352       C  0.78464949  0.42582803  0.33530902    -0.09600
C2353       C  0.75862541  0.42201115  0.33210436    -0.26200
S2354       S  0.70518187  0.47237832  0.34971078    -0.03400
C2355       C  0.72437310  0.00397489  0.36213344    -0.16800
C2356       C  0.74899007  0.00572735  0.36727903    -0.14800
H2357       H  0.79297640  0.99523914  0.36810689     0.20500
H2358       H  0.71355276  0.42962522  0.33217929     0.16600
H2359       H  0.74340223  0.40629243  0.32334104     0.19100
H2360       H  0.76461955  0.02227073  0.37538642     0.12400
C2361       C  0.87291878  0.05119756  0.77896652     0.16300
C2362       C  0.85358443  0.53799596  0.79411979    -0.32700
C2363       C  0.85026906  0.51322027  0.80135703     0.20700
C2364       C  0.85534945  0.99732594  0.79069978     0.02900
C2365       C  0.86770527  0.00545745  0.77382673    -0.22500
C2366       C  0.87667632  0.03291689  0.76832471     0.12100
S2367       S  0.88569214  0.08374105  0.77021641    -0.06100
C2368       C  0.89687437  0.07296942  0.75214601    -0.09600
C2369       C  0.89045159  0.04533090  0.75284832    -0.23800
S2370       S  0.84412566  0.96540505  0.80028914    -0.03400
C2371       C  0.83750953  0.47668004  0.81992178    -0.16800
C2372       C  0.83518720  0.49980215  0.81618089    -0.14800
H2373       H  0.84361176  0.54851703  0.80002407     0.20500
H2374       H  0.87074537  0.99123192  0.76553297     0.16600
H2375       H  0.89599588  0.03505022  0.74274639     0.19100
H2376       H  0.82385830  0.50691361  0.82425148     0.12400
C2377       C  0.74414004  0.02735731  0.86182034     0.16300
C2378       C  0.73325225  0.04524165  0.86341366    -0.32700
C2379       C  0.72630161  0.05392240  0.84763349     0.20700
C2380       C  0.73022983  0.04533767  0.83107239     0.02900
C2381       C  0.74102408  0.02757565  0.82951327    -0.22500
C2382       C  0.74780366  0.01886280  0.84519154     0.12100
S2383       S  0.75360208  0.01379838  0.87914604    -0.06100
C2384       C  0.76586945  0.49806130  0.86688204    -0.09600
C2385       C  0.77483968  0.51481956  0.85186214    -0.26200
S2386       S  0.72166898  0.05875440  0.81345138    -0.03400
C2387       C  0.71227024  0.07583329  0.82845984    -0.16800
C2388       C  0.71582221  0.07153261  0.84619329    -0.14800
H2389       H  0.73031658  0.05205538  0.87633109     0.20500
H2390       H  0.74409846  0.02087041  0.81658746     0.16600
H2391       H  0.79018711  0.51583612  0.84258482     0.19100
H2392       H  0.71179071  0.08142417  0.85731557     0.12400
C2393       C  0.73338866  0.27303117  0.81718389     0.16300
C2394       C  0.73059513  0.29503394  0.82393055    -0.32700
C2395       C  0.75419184  0.31800286  0.83106402     0.20700
C2396       C  0.77961342  0.31932800  0.83121715     0.02900
C2397       C  0.78241252  0.29728299  0.82450523    -0.22500
C2398       C  0.75869760  0.27410587  0.81760759     0.12100
S2399       S  0.70678198  0.24244491  0.80918871    -0.06100
C2400       C  0.72995383  0.23096256  0.80651868    -0.09600
C2401       C  0.75679184  0.24990474  0.81154611    -0.26200
S2402       S  0.80576415  0.34924139  0.84029553    -0.03400
C2403       C  0.78204662  0.35982264  0.84416375    -0.16800
C2404       C  0.75541987  0.34106264  0.83860225    -0.14800
H2405       H  0.71076412  0.29405801  0.82393914     0.20500
H2406       H  0.80209737  0.29796874  0.82489707     0.16600
H2407       H  0.77365057  0.24559405  0.81162664     0.19100
H2408       H  0.73792853  0.34429231  0.83981409     0.12400
C2409       C  0.83670593  0.37306117  0.93678498     0.16300
C2410       C  0.83937168  0.35175642  0.94493705    -0.32700
C2411       C  0.85056546  0.35671638  0.96214556     0.20700
C2412       C  0.85861883  0.38174316  0.97079126     0.02900
C2413       C  0.85552250  0.40278491  0.96277736    -0.22500
C2414       C  0.84439523  0.39786507  0.94561836     0.12100
S2415       S  0.82500594  0.37183861  0.91566662    -0.06100
C2416       C  0.83032460  0.40498488  0.91887399    -0.09600
C2417       C  0.84048200  0.41614320  0.93549371    -0.26200
S2418       S  0.87218893  0.38416086  0.99138487    -0.03400
C2419       C  0.86691022  0.35100888  0.98851754    -0.16800
C2420       C  0.85513497  0.33882937  0.97232291    -0.14800
H2421       H  0.83333412  0.33235132  0.93808424     0.20500
H2422       H  0.86180305  0.42229632  0.96956661     0.16600
H2423       H  0.84549290  0.43682169  0.93974784     0.19100
H2424       H  0.85004752  0.31804407  0.96828307     0.12400
C2425       C  0.99353778  0.12829728  0.04850873     0.16300
C2426       C  0.97892388  0.10780911  0.06146373    -0.32700
C2427       C  0.95587239  0.10713997  0.06945127     0.20700
C2428       C  0.94745642  0.12583502  0.06462719     0.02900
C2429       C  0.96242022  0.14672407  0.05187276    -0.22500
C2430       C  0.98575161  0.14761640  0.04401608     0.12100
S2431       S  0.52911601  0.17092868  0.04577097    -0.06100
C2432       C  0.52107722  0.15842548  0.02430911    -0.09600
C2433       C  0.49387838  0.13723426  0.02211117    -0.26200
S2434       S  0.91821899  0.12067437  0.07549764    -0.03400
C2435       C  0.91779333  0.09350952  0.08697830    -0.16800
C2436       C  0.93915180  0.08879344  0.08234580    -0.14800
H2437       H  0.98504718  0.09275876  0.06499869     0.20500
H2438       H  0.95598286  0.16143819  0.04809584     0.16600
H2439       H  0.48499761  0.12710311  0.00955769     0.19100
H2440       H  0.94224682  0.07267536  0.08810631     0.12400
C2441       C  0.64927029  0.15035671  0.88484536     0.16300
C2442       C  0.64784670  0.15743039  0.90267777    -0.32700
C2443       C  0.62412162  0.15824713  0.90807728     0.20700
C2444       C  0.60304746  0.15250238  0.89614849     0.02900
C2445       C  0.60435734  0.14521955  0.87849498    -0.22500
C2446       C  0.62781274  0.14418698  0.87317086     0.12100
S2447       S  0.67628895  0.14865228  0.87533986    -0.06100
C2448       C  0.65818364  0.13921042  0.85555361    -0.09600
C2449       C  0.63268800  0.13762937  0.85647990    -0.26200
S2450       S  0.57635728  0.15518599  0.90479700    -0.03400
C2451       C  0.59325820  0.16378837  0.92493608    -0.16800
C2452       C  0.61852401  0.16460056  0.92478282    -0.14800
H2453       H  0.66447727  0.16216451  0.91188010     0.20500
H2454       H  0.58779264  0.14064255  0.86926188     0.16600
H2455       H  0.61856665  0.13234353  0.84541323     0.19100
H2456       H  0.63207716  0.16978629  0.93614710     0.12400
C2457       C  0.95353393  0.07062321  0.93446899     0.16300
C2458       C  0.93995627  0.04556907  0.92490418    -0.32700
C2459       C  0.91589109  0.03971979  0.91564448     0.20700
C2460       C  0.90545067  0.05769627  0.91620389     0.02900
C2461       C  0.91892930  0.08266384  0.92585344    -0.22500
C2462       C  0.94328467  0.08876883  0.93481968     0.12100
S2463       S  0.98419421  0.08258922  0.94535570    -0.06100
C2464       C  0.98357824  0.11268844  0.95004502    -0.09600
C2465       C  0.96033713  0.11286327  0.94384426    -0.26200
S2466       S  0.87556364  0.04641614  0.90452531    -0.03400
C2467       C  0.87727082  0.01727280  0.89862543    -0.16800
C2468       C  0.89992585  0.01658287  0.90545961    -0.14800
H2469       H  0.94809035  0.03152321  0.92441046     0.20500
H2470       H  0.91102330  0.09691077  0.92612691     0.16600
H2471       H  0.95685182  0.13031707  0.94501834     0.19100
H2472       H  0.90653331  0.50110912  0.90221324     0.12400
C2473       C  0.64094602  0.30849725  0.92060702     0.16300
C2474       C  0.65558234  0.32391441  0.90561544    -0.32700
C2475       C  0.67995918  0.34928870  0.90848908     0.20700
C2476       C  0.68914501  0.35895688  0.92557080     0.02900
C2477       C  0.67416925  0.34384076  0.94057329    -0.22500
C2478       C  0.64994143  0.31829792  0.93769076     0.12100
S2479       S  0.61242034  0.27615795  0.91980754    -0.06100
C2480       C  0.61253111  0.27566854  0.94273920    -0.09600
C2481       C  0.63348809  0.29963250  0.95052041    -0.26200
S2482       S  0.72034841  0.38885488  0.92633173    -0.03400
C2483       C  0.72108966  0.38837395  0.90339155    -0.16800
C2484       C  0.69807878  0.36631950  0.89563716    -0.14800
H2485       H  0.64877183  0.31600381  0.89230596     0.20500
H2486       H  0.68160057  0.35118992  0.95388765     0.16600
H2487       H  0.63719436  0.30269588  0.96469420     0.19100
H2488       H  0.69546419  0.36217325  0.88148515     0.12400
C2489       C  0.96911702  0.24560600  0.97947693     0.16300
C2490       C  0.94477812  0.24690965  0.98041584    -0.32700
C2491       C  0.94483990  0.26734338  0.99146535     0.20700
C2492       C  0.96837710  0.28642502  0.00056751     0.02900
C2493       C  0.99265807  0.28512075  0.99962441    -0.22500
C2494       C  0.99222969  0.26397279  0.98920543     0.12100
S2495       S  0.47659304  0.22123506  0.96946504    -0.06100
C2496       C  0.50752127  0.23308379  0.98031781    -0.09600
C2497       C  0.01299851  0.25795434  0.98786153    -0.26200
S2498       S  0.96410073  0.30920797  0.01359760    -0.03400
C2499       C  0.92996423  0.29202606  0.00733808    -0.16800
C2500       C  0.92260978  0.27034879  0.99543141    -0.14800
H2501       H  0.43075446  0.23346349  0.97299125     0.20500
H2502       H  0.01079618  0.29933714  0.00720468     0.16600
H2503       H  0.03260795  0.26918592  0.99473970     0.19100
H2504       H  0.90192471  0.25707568  0.99032762     0.12400
C2505       C  0.73478326  0.26560819  0.01616034     0.16300
C2506       C  0.71416829  0.26649731  0.00624990    -0.32700
C2507       C  0.68790640  0.24265987  0.00622528     0.20700
C2508       C  0.68225650  0.21881774  0.01557907     0.02900
C2509       C  0.70287399  0.21804778  0.02574114    -0.22500
C2510       C  0.72923338  0.24205658  0.02586279     0.12100
S2511       S  0.76837957  0.29166891  0.01659494    -0.06100
C2512       C  0.77509214  0.27092006  0.03022421    -0.09600
C2513       C  0.75239537  0.24515954  0.03423109    -0.26200
S2514       S  0.64894532  0.19194660  0.01341738    -0.03400
C2515       C  0.64268196  0.21339174  0.00004531    -0.16800
C2516       C  0.66534201  0.23970388  0.99736528    -0.14800
H2517       H  0.71852914  0.28487396  0.99864327     0.20500
H2518       H  0.69864957  0.19947891  0.03305717     0.16600
H2519       H  0.75319638  0.22900162  0.04184281     0.19100
H2520       H  0.66525879  0.25596033  0.98941615     0.12400
O2521       O  0.53615352  0.72018686  0.98657529    -0.85000
O2522       O  0.55841544  0.69523064  0.00620001    -0.82000
C2523       C  0.53873340  0.66998735  0.00667214     0.98500
O2524       O  0.53439559  0.65402604  0.99360508    -0.82100
O2525       O  0.52904712  0.63669307  0.95879048    -0.84700
C2526       C  0.50801236  0.63784002  0.95402613     1.03000
O2527       O  0.50863386  0.66079431  0.95420288    -0.77500
O2528       O  0.52653476  0.71660934  0.95804177    -0.77700
C2529       C  0.52314134  0.72254433  0.97374390     1.03000
O2530       O  0.58607919  0.75194643  0.96636312    -0.85000
O2531       O  0.60873578  0.72557354  0.98410402    -0.82000
C2532       C  0.61314354  0.70705598  0.99004486     0.98500
O2533       O  0.59368031  0.68202316  0.99056857    -0.82100
O2534       O  0.58732630  0.67133436  0.95396589    -0.84700
C2535       C  0.57944262  0.67103530  0.93816200     1.03000
O2536       O  0.55894848  0.67432117  0.93500299    -0.77500
O2537       O  0.57722994  0.72907357  0.94107530    -0.77600
C2538       C  0.58955200  0.75145131  0.94970640     1.02900
Cr2539     Cr  0.57149885  0.72108469  0.98464641     1.93700
Cr2540     Cr  0.56104580  0.66334781  0.97396574     1.93200
Cr2541     Cr  0.54387936  0.69502688  0.94871633     1.39100
O2542       O  0.55884942  0.69344437  0.96905145    -1.22700
O2543       O  0.77578176  0.96445658  0.85537441    -0.85000
O2544       O  0.80012651  0.94160965  0.83591565    -0.82000
C2545       C  0.82502480  0.96140879  0.83527769     0.98500
O2546       O  0.84069721  0.96740439  0.84859047    -0.82100
O2547       O  0.85684594  0.97309207  0.88416252    -0.84700
C2548       C  0.85430184  0.99331377  0.88955280     1.03000
O2549       O  0.83115728  0.99171633  0.88881252    -0.77500
O2550       O  0.77563823  0.97207811  0.88399202    -0.77700
C2551       C  0.77201725  0.97694137  0.86804574     1.03000
O2552       O  0.74287364  0.91320696  0.87495733    -0.85000
O2553       O  0.77028755  0.89131454  0.85688874    -0.82000
C2554       C  0.78944491  0.88786048  0.85110544     0.98500
O2555       O  0.81428258  0.90761035  0.85173186    -0.82100
O2556       O  0.82372649  0.91395542  0.88771472    -0.84700
C2557       C  0.82298390  0.92051424  0.90367297     1.03000
O2558       O  0.81897311  0.94058582  0.90748520    -0.77500
O2559       O  0.76476570  0.92075496  0.90038616    -0.77600
C2560       C  0.74287783  0.90868119  0.89150616     1.02900
Cr2561     Cr  0.77423557  0.92856261  0.85707303     1.93700
Cr2562     Cr  0.83168405  0.94067715  0.86831441     1.93200
Cr2563     Cr  0.79792693  0.95533595  0.89354753     1.39100
O2564       O  0.80102203  0.94136316  0.87303929    -1.22700
O2565       O  0.77425485  0.81492637  0.32113701    -0.85000
O2566       O  0.79934845  0.86136458  0.34150773    -0.82000
C2567       C  0.82452384  0.86746617  0.34182551     0.98500
O2568       O  0.84036365  0.87967960  0.32878481    -0.82100
O2569       O  0.85666747  0.89134664  0.29350478    -0.84700
C2570       C  0.85476051  0.86856199  0.28866599     1.03000
O2571       O  0.83161744  0.84654652  0.28864096    -0.77500
O2572       O  0.77588425  0.80978103  0.29228073    -0.77700
C2573       C  0.77093095  0.79984016  0.30786747     1.03000
O2574       O  0.74283048  0.83477769  0.30228729    -0.85000
O2575       O  0.76956593  0.88293590  0.32095158    -0.82000
C2576       C  0.78804530  0.90581027  0.32701724     0.98500
O2577       O  0.81298058  0.91160732  0.32678262    -0.82100
O2578       O  0.82245178  0.91622414  0.29011968    -0.84700
C2579       C  0.82255734  0.90930020  0.27411551     1.03000
O2580       O  0.82007076  0.88581292  0.27038963    -0.77500
O2581       O  0.76551737  0.85120505  0.27715940    -0.77600
C2582       C  0.74351130  0.84140507  0.28608098     1.02900
Cr2583     Cr  0.77362214  0.84979459  0.32030177     1.93700
Cr2584     Cr  0.83092055  0.89741589  0.30948397     1.93200
Cr2585     Cr  0.79845780  0.84939606  0.28372860     1.39100
O2586       O  0.80082883  0.86526149  0.30454911    -1.22700
O2587       O  0.54473890  0.80883222  0.19675291    -0.85000
O2588       O  0.53604597  0.84252396  0.17367171    -0.82000
C2589       C  0.53154034  0.86191833  0.16934955     0.98500
O2590       O  0.54337023  0.88519876  0.17742800    -0.82100
O2591       O  0.51664738  0.87869434  0.20910151    -0.84700
C2592       C  0.50557317  0.86602029  0.22337309     1.03000
O2593       O  0.51582239  0.85417753  0.23226255    -0.77500
O2594       O  0.51500029  0.81003483  0.21497008    -0.77700
C2595       C  0.52126589  0.79687680  0.20405108     1.03000
O2596       O  0.59868701  0.85397985  0.20394138    -0.85000
O2597       O  0.59243132  0.88422313  0.17689567    -0.82000
C2598       C  0.60626282  0.90787634  0.18390362     0.98500
O2599       O  0.59623463  0.91447296  0.19672415    -0.82100
O2600       O  0.56815667  0.90896384  0.22744762    -0.84700
C2601       C  0.57600733  0.90042090  0.24054469     1.03000
O2602       O  0.57193000  0.87591720  0.24117970    -0.77500
O2603       O  0.57176761  0.83069776  0.22647406    -0.77600
C2604       C  0.59510690  0.84186162  0.21876345     1.02900
Cr2605     Cr  0.56706497  0.84850367  0.18920785     1.93700
Cr2606     Cr  0.55616726  0.89429592  0.20284767     1.93200
Cr2607     Cr  0.54442322  0.84403202  0.22696627     1.39100
O2608       O  0.55568156  0.86241966  0.20644379    -1.22700
O2609       O  0.80659208  0.54893064  0.14451453    -0.85000
O2610       O  0.84066216  0.54164725  0.16814883    -0.82000
C2611       C  0.85995698  0.53723962  0.17258756     0.98500
O2612       O  0.88289932  0.54859052  0.16421077    -0.82100
O2613       O  0.87837708  0.52116616  0.13331559    -0.84700
C2614       C  0.86368480  0.50730248  0.12038406     1.03000
O2615       O  0.85006592  0.51540195  0.11140324    -0.77500
O2616       O  0.80723980  0.51741936  0.12764368    -0.77700
C2617       C  0.79435071  0.52478281  0.13800329     1.03000
O2618       O  0.85148994  0.60220173  0.13532784    -0.85000
O2619       O  0.88154959  0.59814929  0.16350511    -0.82000
C2620       C  0.90533235  0.61152694  0.15683010     0.98500
O2621       O  0.91164460  0.60138194  0.14398012    -0.82100
O2622       O  0.90707442  0.57274404  0.11390578    -0.84700
C2623       C  0.89761728  0.57796605  0.10008300     1.03000
O2624       O  0.87243276  0.57103011  0.09893359    -0.77500
O2625       O  0.82866270  0.57350727  0.11335097    -0.77600
C2626       C  0.83979863  0.59754981  0.12030844     1.02900
Cr2627     Cr  0.84624329  0.57168667  0.15141878     1.93700
Cr2628     Cr  0.89224526  0.56087973  0.13860563     1.93200
Cr2629     Cr  0.84108721  0.54539907  0.11461058     1.39100
O2630       O  0.85999417  0.55905128  0.13474819    -1.22700
O2631       O  0.81976740  0.78484785  0.01694266    -0.85000
O2632       O  0.86763345  0.81291215  0.99903238    -0.82000
C2633       C  0.87353210  0.83811228  0.00076153     0.98500
O2634       O  0.88378793  0.85122223  0.01501478    -0.82100
O2635       O  0.88854290  0.85988608  0.05101518    -0.84700
C2636       C  0.86479313  0.85608907  0.05471740     1.03000
O2637       O  0.84368311  0.83246206  0.05286891    -0.77500
O2638       O  0.80986864  0.77651335  0.04518366    -0.77700
C2639       C  0.80266499  0.77762112  0.02941260     1.03000
O2640       O  0.83738722  0.74824127  0.03373635    -0.85000
O2641       O  0.88673794  0.77932236  0.01671015    -0.82000
C2642       C  0.91040198  0.79961369  0.01363613     0.98500
O2643       O  0.91609334  0.82431787  0.01668139    -0.82100
O2644       O  0.91496502  0.82681036  0.05325490    -0.84700
C2645       C  0.90601186  0.82437677  0.06894674     1.03000
O2646       O  0.88182375  0.82025779  0.07176742    -0.77500
O2647       O  0.85150734  0.76721497  0.06012148    -0.77600
C2648       C  0.84309740  0.74660728  0.04992748     1.02900
Cr2649     Cr  0.85375747  0.78294953  0.01796406     1.93700
Cr2650     Cr  0.89863897  0.83829386  0.03404877     1.93200
Cr2651     Cr  0.84795470  0.79963975  0.05596838     1.39100
O2652       O  0.86682091  0.80675171  0.03591778    -1.22700
O2653       O  0.71823874  0.68709336  0.81746414    -0.85000
O2654       O  0.69727287  0.64115203  0.83875073    -0.82000
C2655       C  0.67189395  0.63404761  0.84012161     0.98500
O2656       O  0.65541164  0.62176514  0.82747380    -0.82100
O2657       O  0.63593441  0.60794742  0.79295794    -0.84700
C2658       C  0.63683355  0.63012316  0.78768775     1.03000
O2659       O  0.65967206  0.65242963  0.78670552    -0.77500
O2660       O  0.71518719  0.69103303  0.78859170    -0.77700
C2661       C  0.72043590  0.70156418  0.80405405     1.03000
O2662       O  0.75041656  0.66930694  0.79730674    -0.85000
O2663       O  0.72718597  0.62145603  0.81646953    -0.82000
C2664       C  0.71001857  0.59838791  0.82308574     0.98500
O2665       O  0.68480336  0.59161540  0.82431850    -0.82100
O2666       O  0.67122177  0.58441891  0.78843119    -0.84700
C2667       C  0.66916433  0.59005023  0.77246127     1.03000
O2668       O  0.67154430  0.61340728  0.76836372    -0.77500
O2669       O  0.72647052  0.65007843  0.77309174    -0.77600
C2670       C  0.74912765  0.66163220  0.78127706     1.02900
Cr2671     Cr  0.72110572  0.65336122  0.81643668     1.93700
Cr2672     Cr  0.66395443  0.60379783  0.80790942     1.93200
Cr2673     Cr  0.69318675  0.65076514  0.78075983     1.39100
O2674       O  0.69286990  0.63619466  0.80170309    -1.22700
O2675       O  0.94721962  0.68440269  0.69542477    -0.85000
O2676       O  0.95498434  0.64996947  0.67251469    -0.82000
C2677       C  0.95907124  0.63032842  0.66819146     0.98500
O2678       O  0.94705298  0.60714376  0.67641748    -0.82100
O2679       O  0.97435699  0.61488850  0.70805090    -0.84700
C2680       C  0.98435417  0.62649581  0.72275267     1.03000
O2681       O  0.97302227  0.63721713  0.73183753    -0.77500
O2682       O  0.97565447  0.68204873  0.71428929    -0.77700
C2683       C  0.97020881  0.69575603  0.70332834     1.03000
O2684       O  0.89231621  0.63999835  0.70233333    -0.85000
O2685       O  0.89839682  0.60839780  0.67609997    -0.82000
C2686       C  0.88434225  0.58523941  0.68378507     0.98500
O2687       O  0.89460343  0.57887658  0.69654109    -0.82100
O2688       O  0.92351806  0.58488685  0.72700443    -0.84700
C2689       C  0.91293455  0.59242307  0.73913135     1.03000
O2690       O  0.91565207  0.61639033  0.73902741    -0.77500
O2691       O  0.91887928  0.66318768  0.72483907    -0.77600
C2692       C  0.89593128  0.65293720  0.71680345     1.02900
Cr2693     Cr  0.92406682  0.64459686  0.68793254     1.93700
Cr2694     Cr  0.93475831  0.59884941  0.70207190     1.93200
Cr2695     Cr  0.94516851  0.64845420  0.72588106     1.39100
O2696       O  0.93499509  0.63063780  0.70530538    -1.22700
O2697       O  0.95947388  0.77978574  0.48795697    -0.85000
O2698       O  0.93647614  0.80514877  0.50605966    -0.82000
C2699       C  0.95611211  0.83022802  0.50583809     0.98500
O2700       O  0.96149227  0.84471012  0.49187637    -0.82100
O2701       O  0.96826806  0.85701893  0.45604879    -0.84700
C2702       C  0.98816670  0.85336457  0.45183791     1.03000
O2703       O  0.98526965  0.82938596  0.45251374    -0.77500
O2704       O  0.96318751  0.77325786  0.45959385    -0.77700
C2705       C  0.97054595  0.77375779  0.47555049     1.03000
O2706       O  0.90742632  0.74391328  0.46957891    -0.85000
O2707       O  0.88653115  0.77308791  0.48601737    -0.82000
C2708       C  0.88284580  0.79303189  0.48980404     0.98500
O2709       O  0.90213607  0.81802267  0.48796573    -0.82100
O2710       O  0.90918099  0.82475755  0.45174998    -0.84700
C2711       C  0.91631404  0.82293791  0.43610378     1.03000
O2712       O  0.93576599  0.81785464  0.43337975    -0.77500
O2713       O  0.91275100  0.76335838  0.44329059    -0.77600
C2714       C  0.90081292  0.74240436  0.45329716     1.02900
Cr2715     Cr  0.92338790  0.77723588  0.48606119     1.93700
Cr2716     Cr  0.93527379  0.83384473  0.47175561     1.93200
Cr2717     Cr  0.94833640  0.79640794  0.44873568     1.39100
O2718       O  0.93542639  0.80232223  0.46882019    -1.22700
O2719       O  0.71214114  0.53166265  0.35456208    -0.85000
O2720       O  0.68935620  0.55588173  0.33482017    -0.82000
C2721       C  0.66431785  0.53644794  0.33503062     0.98500
O2722       O  0.64942471  0.53243475  0.34858246    -0.82100
O2723       O  0.63530711  0.52818297  0.38384727    -0.84700
C2724       C  0.63720218  0.50762609  0.38913895     1.03000
O2725       O  0.66016528  0.50855224  0.38884710    -0.77500
O2726       O  0.71620645  0.52833444  0.38328064    -0.77700
C2727       C  0.71704134  0.52068571  0.36757211     1.03000
O2728       O  0.74806978  0.58429863  0.37271940    -0.85000
O2729       O  0.72185458  0.60683504  0.35445556    -0.82000
C2730       C  0.70284532  0.61148551  0.35020019     0.98500
O2731       O  0.67776099  0.59262314  0.35144327    -0.82100
O2732       O  0.66873686  0.58702770  0.38775833    -0.84700
C2733       C  0.66931763  0.57967999  0.40359090     1.03000
O2734       O  0.67339144  0.55959522  0.40678989    -0.77500
O2735       O  0.72737398  0.58022097  0.39837351    -0.77600
C2736       C  0.74884041  0.59128521  0.38890715     1.02900
Cr2737     Cr  0.71602629  0.56887205  0.35542618     1.93700
Cr2738     Cr  0.66005609  0.55999171  0.36805473     1.93200
Cr2739     Cr  0.69400572  0.54505817  0.39269146     1.39100
O2740       O  0.69025873  0.55827952  0.37211188    -1.22700
O2741       O  0.67679034  0.96202007  0.65516550    -0.85000
O2742       O  0.62796749  0.94160787  0.67261658    -0.82000
C2743       C  0.62214806  0.96090688  0.67110092     0.98500
O2744       O  0.61145990  0.96347467  0.65698659    -0.82100
O2745       O  0.60446462  0.96634583  0.62104361    -0.84700
C2746       C  0.62705164  0.98701934  0.61611152     1.03000
O2747       O  0.64929861  0.98681746  0.61796058    -0.77500
O2748       O  0.68595377  0.96885083  0.62661551    -0.77700
C2749       C  0.69365516  0.97364505  0.64266622     1.03000
O2750       O  0.65905959  0.90930709  0.63780573    -0.85000
O2751       O  0.60949105  0.88902616  0.65387210    -0.82000
C2752       C  0.58594831  0.88480173  0.65783056     0.98500
O2753       O  0.57988014  0.90356144  0.65528772    -0.82100
O2754       O  0.58051286  0.90776768  0.61820872    -0.84700
C2755       C  0.58978862  0.91508465  0.60255507     1.03000
O2756       O  0.61437650  0.93480618  0.59993765    -0.77500
O2757       O  0.64866295  0.91630625  0.61078679    -0.77600
C2758       C  0.65626079  0.90386316  0.62131063     1.02900
Cr2759     Cr  0.64220311  0.92636331  0.65341085     1.93700
Cr2760     Cr  0.59659755  0.93534474  0.63784521     1.93200
Cr2761     Cr  0.64819385  0.95075867  0.61551608     1.39100
O2762       O  0.62918008  0.93741512  0.63557478    -1.22700
O2763       O  0.68087775  0.72173558  0.52020107    -0.85000
O2764       O  0.63351938  0.69599807  0.50094563    -0.82000
C2765       C  0.62829670  0.67091034  0.50043641     0.98500
O2766       O  0.61775865  0.65506164  0.51370858    -0.82100
O2767       O  0.60805911  0.63860851  0.54865864    -0.84700
C2768       C  0.63116701  0.64123650  0.55268972     1.03000
O2769       O  0.65249267  0.66493793  0.55288221    -0.77500
O2770       O  0.68759729  0.72090395  0.54891484    -0.77700
C2771       C  0.69653520  0.72530520  0.53308666     1.03000
O2772       O  0.66185432  0.75302183  0.54012628    -0.85000
O2773       O  0.61273841  0.72509624  0.52287902    -0.82000
C2774       C  0.59013976  0.70595173  0.51704571     0.98500
O2775       O  0.58503528  0.68107053  0.51705153    -0.82100
O2776       O  0.58170021  0.67102698  0.55371348    -0.84700
C2777       C  0.58946510  0.67086906  0.56947949     1.03000
O2778       O  0.61366867  0.67525714  0.57248834    -0.77500
O2779       O  0.64691170  0.73068574  0.56553410    -0.77600
C2780       C  0.65640621  0.75274582  0.55652440     1.02900
Cr2781     Cr  0.64608135  0.72190534  0.52221358     1.93700
Cr2782     Cr  0.60039426  0.66376604  0.53357848     1.93200
Cr2783     Cr  0.64896291  0.69771763  0.55842124     1.39100
O2784       O  0.63200149  0.69467283  0.53807960    -1.22700
C2785       C  0.61155063  0.53941775  0.59273240     0.16300
C2786       C  0.59953645  0.55238675  0.58340881    -0.32700
C2787       C  0.61722626  0.57663369  0.57393627     0.20700
C2788       C  0.64561500  0.58741600  0.57358779     0.02900
C2789       C  0.65757946  0.57405257  0.58259181    -0.22500
C2790       C  0.63989854  0.54997059  0.59227778     0.12100
S2791       S  0.59361199  0.51015219  0.60527880    -0.06100
C2792       C  0.62460610  0.51196571  0.60988226    -0.09600
C2793       C  0.64755694  0.53426850  0.60214221    -0.26200
S2794       S  0.66372232  0.61863509  0.56288676    -0.03400
C2795       C  0.63269011  0.61717010  0.55907371    -0.16800
C2796       C  0.60963990  0.59336986  0.56532691    -0.14800
H2797       H  0.57742320  0.54431224  0.58387619     0.20500
H2798       H  0.67975704  0.58249925  0.58248317     0.16600
H2799       H  0.66855257  0.53826782  0.60321908     0.19100
H2800       H  0.58864831  0.58952657  0.56478508     0.12400
C2801       C  0.66069413  0.84017100  0.60675539     0.16300
C2802       C  0.65744789  0.81355446  0.60499710    -0.32700
C2803       C  0.66083749  0.80530710  0.58797386     0.20700
C2804       C  0.66771639  0.82290216  0.57338905     0.02900
C2805       C  0.67108976  0.84954925  0.57515944    -0.22500
C2806       C  0.66710305  0.85755641  0.59209707     0.12100
S2807       S  0.65553114  0.85341730  0.62599631    -0.06100
C2808       C  0.66134081  0.88230463  0.61400547    -0.09600
C2809       C  0.66746002  0.88172628  0.59618213    -0.26200
S2810       S  0.66998809  0.80860337  0.55377435    -0.03400
C2811       C  0.66107104  0.77841514  0.56531021    -0.16800
C2812       C  0.65700574  0.77974876  0.58341249    -0.14800
H2813       H  0.65177161  0.79959501  0.61629241     0.20500
H2814       H  0.67582427  0.86313863  0.56374418     0.16600
H2815       H  0.67099063  0.89774485  0.58657259     0.19100
H2816       H  0.65093208  0.76268405  0.59268812     0.12400
C2817       C  0.65267848  0.60448897  0.44691167     0.16300
C2818       C  0.64557729  0.60688956  0.46438951    -0.32700
C2819       C  0.64248276  0.62975269  0.46849414     0.20700
C2820       C  0.64663673  0.64971814  0.45587102     0.02900
C2821       C  0.65361820  0.64722006  0.43824302    -0.22500
C2822       C  0.65637172  0.62400988  0.43404956     0.12100
S2823       S  0.65715586  0.57805238  0.43952496    -0.06100
C2824       C  0.66370720  0.59298873  0.41870409    -0.09600
C2825       C  0.66260359  0.61741003  0.41768792    -0.26200
S2826       S  0.64245176  0.67627026  0.46394833    -0.03400
C2827       C  0.63452648  0.65981042  0.48437631    -0.16800
C2828       C  0.63540539  0.63531433  0.48475165    -0.14800
H2829       H  0.64248658  0.59149555  0.47437369     0.20500
H2830       H  0.65668532  0.66259284  0.42826128     0.16600
H2831       H  0.66614820  0.62958588  0.40569762     0.19100
H2832       H  0.63142300  0.62237198  0.49643043     0.12400
C2833       C  0.99424470  0.85194322  0.55066170     0.16300
C2834       C  0.00340183  0.85347281  0.56822933    -0.32700
C2835       C  0.53309785  0.87326812  0.57131137     0.20700
C2836       C  0.54939506  0.89301847  0.55868223     0.02900
C2837       C  0.53990596  0.89171883  0.54127143    -0.22500
C2838       C  0.51348773  0.86967635  0.53704784     0.12100
S2839       S  0.96379720  0.82571849  0.54234307    -0.06100
C2840       C  0.97285798  0.84236532  0.52198771    -0.09600
C2841       C  0.50068096  0.86485293  0.52083363    -0.26200
S2842       S  0.58068303  0.91831968  0.56640093    -0.03400
C2843       C  0.57166346  0.90251268  0.58700698    -0.16800
C2844       C  0.54572614  0.87868403  0.58766450    -0.14800
H2845       H  0.99083238  0.83769821  0.57794978     0.20500
H2846       H  0.55254779  0.90727349  0.53145276     0.16600
H2847       H  0.50982250  0.87778452  0.50917199     0.19100
H2848       H  0.53651352  0.86620626  0.59948276     0.12400
C2849       C  0.55665174  0.90491021  0.42874814     0.16300
C2850       C  0.58307144  0.91967038  0.42097778    -0.32700
C2851       C  0.58960691  0.94394454  0.41133848     0.20700
C2852       C  0.57053653  0.95276397  0.40938478     0.02900
C2853       C  0.54438627  0.93820437  0.41720763    -0.22500
C2854       C  0.53805504  0.91435564  0.42701836     0.12100
S2855       S  0.54397366  0.87447793  0.44051032    -0.06100
C2856       C  0.51364416  0.87506363  0.44327585    -0.09600
C2857       C  0.51359414  0.89759170  0.43548486    -0.26200
S2858       S  0.58214462  0.98280131  0.39769384    -0.03400
C2859       C  0.61344625  0.98419272  0.39567605    -0.16800
C2860       C  0.61446255  0.96199572  0.40340596    -0.14800
H2861       H  0.59785063  0.91264456  0.42243664     0.20500
H2862       H  0.52965475  0.94531665  0.41583179     0.16600
H2863       H  0.99931871  0.90630788  0.44046644     0.19100
H2864       H  0.63262244  0.95980001  0.40381720     0.12400
C2865       C  0.83729107  0.67425525  0.43838170     0.16300
C2866       C  0.81126778  0.65020059  0.43681436    -0.32700
C2867       C  0.80231205  0.63938554  0.41968428     0.20700
C2868       C  0.81862094  0.65156717  0.40475760     0.02900
C2869       C  0.84462701  0.67565392  0.40632242    -0.22500
C2870       C  0.85337379  0.68677118  0.42341701     0.12100
S2871       S  0.85142652  0.69148041  0.45787001    -0.06100
C2872       C  0.87895764  0.71614212  0.44563440    -0.09600
C2873       C  0.87722524  0.71085032  0.42750179    -0.26200
S2874       S  0.80359098  0.63549736  0.38512403    -0.03400
C2875       C  0.77482007  0.61249458  0.39715732    -0.16800
C2876       C  0.77718877  0.61703662  0.41539670    -0.14800
H2877       H  0.79830622  0.64065860  0.44839525     0.20500
H2878       H  0.85724644  0.68565323  0.39468448     0.16600
H2879       H  0.89234404  0.72435964  0.41774354     0.19100
H2880       H  0.76106658  0.60495159  0.42501902     0.12400
C2881       C  0.53776736  0.71863844  0.49250683     0.16300
C2882       C  0.51774155  0.71831588  0.48117299    -0.32700
C2883       C  0.51249508  0.74046580  0.48260637     0.20700
C2884       C  0.52648081  0.76178608  0.49483665     0.02900
C2885       C  0.54678715  0.76239305  0.50583419    -0.22500
C2886       C  0.55205330  0.74042269  0.50436104     0.12100
S2887       S  0.54691752  0.69354828  0.49332790    -0.06100
C2888       C  0.57047737  0.71311838  0.50952229    -0.09600
C2889       C  0.57093440  0.73746669  0.51404793    -0.26200
S2890       S  0.01708413  0.78752400  0.49537905    -0.03400
C2891       C  0.99201701  0.76728103  0.48020717    -0.16800
C2892       C  0.49290463  0.74338621  0.47349596    -0.14800
H2893       H  0.50647341  0.70138758  0.47189033     0.20500
H2894       H  0.55765118  0.77901610  0.51538744     0.16600
H2895       H  0.58449329  0.75230154  0.52388443     0.19100
H2896       H  0.47879580  0.72865472  0.46382968     0.12400
C2897       C  0.81248700  0.78234966  0.50344525     0.16300
C2898       C  0.78745502  0.78216753  0.50467184    -0.32700
C2899       C  0.76679987  0.76187583  0.51557920     0.20700
C2900       C  0.77103024  0.74308352  0.52529041     0.02900
C2901       C  0.79595897  0.74304949  0.52389782    -0.22500
C2902       C  0.81632516  0.76282573  0.51257455     0.12100
S2903       S  0.83988702  0.80479552  0.49052776    -0.06100
C2904       C  0.85611361  0.78692414  0.49699615    -0.09600
C2905       C  0.84127898  0.76517775  0.50874811    -0.26200
S2906       S  0.74333439  0.72027295  0.53789853    -0.03400
C2907       C  0.72575084  0.73569471  0.52945077    -0.16800
C2908       C  0.74068246  0.75747488  0.51775856    -0.14800
H2909       H  0.78404212  0.79685480  0.49721230     0.20500
H2910       H  0.79915392  0.72797379  0.53105616     0.16600
H2911       H  0.84834619  0.75171074  0.51407698     0.19100
H2912       H  0.73269529  0.76925872  0.51109670     0.12400
C2913       C  0.01486869  0.63840097  0.63493245     0.16300
C2914       C  0.03725086  0.63863957  0.62628162    -0.32700
C2915       C  0.53356715  0.65954814  0.60067814     0.20700
C2916       C  0.54525905  0.64872452  0.61209365     0.02900
C2917       C  0.53377822  0.63842989  0.62893455    -0.22500
C2918       C  0.51047255  0.64002711  0.63402000     0.12100
S2919       S  0.00011729  0.62100120  0.65428460    -0.06100
C2920       C  0.97837969  0.63454797  0.65355555    -0.09600
C2921       C  0.49675262  0.63161205  0.65003259    -0.26200
S2922       S  0.57409077  0.64950152  0.60385597    -0.03400
C2923       C  0.57010346  0.66387891  0.58457168    -0.16800
C2924       C  0.54755809  0.66797754  0.58470888    -0.14800
H2925       H  0.04676165  0.62740487  0.63169654     0.20500
H2926       H  0.54283374  0.62982832  0.63778419     0.16600
H2927       H  0.50233818  0.62234683  0.66073757     0.19100
H2928       H  0.54199951  0.67701553  0.57385492     0.12400
C2929       C  0.52774895  0.77219525  0.69390286     0.16300
C2930       C  0.55296285  0.79629254  0.69018663    -0.32700
C2931       C  0.55211631  0.81773098  0.68086960     0.20700
C2932       C  0.52733202  0.81576576  0.67591630     0.02900
C2933       C  0.00306855  0.79134974  0.68211055    -0.22500
C2934       C  0.50301609  0.76997758  0.68855173     0.12100
S2935       S  0.52431787  0.74294415  0.70390952    -0.06100
C2936       C  0.99005378  0.72515244  0.69970427    -0.09600
C2937       C  0.98171969  0.74335325  0.69368762    -0.26200
S2938       S  0.53084085  0.84400625  0.66450148    -0.03400
C2939       C  0.56606212  0.85816098  0.66601630    -0.16800
C2940       C  0.57441034  0.84196188  0.67511793    -0.14800
H2941       H  0.57241874  0.79794153  0.69392272     0.20500
H2942       H  0.98360538  0.79074649  0.68010702     0.16600
H2943       H  0.96039188  0.73814640  0.69217746     0.19100
H2944       H  0.59573122  0.84756349  0.67727894     0.12400
C2945       C  0.80736241  0.53349958  0.67630496     0.16300
C2946       C  0.77939170  0.51330635  0.67809130    -0.32700
C2947       C  0.76149611  0.51105583  0.66436288     0.20700
C2948       C  0.77092880  0.52787807  0.64936520     0.02900
C2949       C  0.79889810  0.54843292  0.64770468    -0.22500
C2950       C  0.81680391  0.55086729  0.66154750     0.12100
S2951       S  0.83229520  0.53955065  0.69157814    -0.06100
C2952       C  0.85569459  0.56617078  0.67813954    -0.09600
C2953       C  0.84454480  0.56980322  0.66258388    -0.26200
S2954       S  0.74588641  0.52065317  0.63381083    -0.03400
C2955       C  0.72292419  0.99190070  0.64707279    -0.16800
C2956       C  0.73452356  0.98804235  0.66230944    -0.14800
H2957       H  0.77188860  0.49987644  0.68968315     0.20500
H2958       H  0.80639802  0.56185705  0.63611429     0.16600
H2959       H  0.85604377  0.58576122  0.65270719     0.19100
H2960       H  0.72334454  0.97189505  0.67214400     0.12400
C2961       C  0.65520659  0.53014355  0.74056262     0.16300
C2962       C  0.65328700  0.50680410  0.73184939    -0.32700
C2963       C  0.64057352  0.49987221  0.71505800     0.20700
C2964       C  0.62998402  0.51531608  0.70746413     0.02900
C2965       C  0.63200153  0.53861787  0.71611329    -0.22500
C2966       C  0.64504455  0.54578270  0.73270521     0.12100
S2967       S  0.66975868  0.54213591  0.76099674    -0.06100
C2968       C  0.66256139  0.56878106  0.75866188    -0.09600
C2969       C  0.64941605  0.56808029  0.74293357    -0.26200
S2970       S  0.62983445  0.01254463  0.68166200    -0.03400
C2971       C  0.62842524  0.98123887  0.68559855    -0.16800
C2972       C  0.63535763  0.97817426  0.70286050    -0.14800
H2973       H  0.66152804  0.49475514  0.73781499     0.20500
H2974       H  0.62402916  0.55085123  0.71005990     0.16600
H2975       H  0.64302693  0.58288503  0.73929532     0.19100
H2976       H  0.63582792  0.96005348  0.70772851     0.12400
C2977       C  0.53887578  0.61364102  0.74385976     0.16300
C2978       C  0.55403126  0.60151452  0.75023385    -0.32700
C2979       C  0.57477468  0.61650155  0.76289492     0.20700
C2980       C  0.58034080  0.64252479  0.76876516     0.02900
C2981       C  0.56478815  0.65431416  0.76271651    -0.22500
C2982       C  0.54393139  0.63924955  0.75021599     0.12100
S2983       S  0.51300430  0.59909783  0.72838035    -0.06100
C2984       C  0.50853848  0.62750832  0.73085932    -0.09600
C2985       C  0.52642307  0.64714418  0.74296385    -0.26200
S2986       S  0.60803432  0.65865490  0.78272805    -0.03400
C2987       C  0.61195157  0.62985738  0.78099710    -0.16800
C2988       C  0.59257855  0.60888266  0.77014436    -0.14800
H2989       H  0.55004145  0.58143190  0.74539199     0.20500
H2990       H  0.56903633  0.67457750  0.76736685     0.16600
H2991       H  0.52628232  0.66600961  0.74649532     0.19100
H2992       H  0.59267275  0.58992502  0.76682112     0.12400
C2993       C  0.81804945  0.67182020  0.76342788     0.16300
C2994       C  0.84468537  0.67571634  0.76134847    -0.32700
C2995       C  0.85087754  0.66717669  0.74524232     0.20700
C2996       C  0.83157078  0.65562080  0.73170202     0.02900
C2997       C  0.80511150  0.65214554  0.73367144    -0.22500
C2998       C  0.79879910  0.66030776  0.74985747     0.12100
S2999       S  0.80568917  0.67875397  0.78243068    -0.06100
C3000       C  0.77416420  0.66570100  0.77202858    -0.09600
C3001       C  0.77368028  0.65692935  0.75466961    -0.26200
S3002       S  0.84259885  0.64524668  0.71357040    -0.03400
C3003       C  0.87356264  0.65650540  0.72434847    -0.16800
C3004       C  0.87508070  0.66788576  0.74105026    -0.14800
H3005       H  0.85968140  0.68430482  0.77200813     0.20500
H3006       H  0.78982836  0.64274132  0.72322702     0.16600
H3007       H  0.75557319  0.64758268  0.74621405     0.19100
H3008       H  0.89270814  0.67558970  0.74986629     0.12400
C3009       C  0.87346612  0.94821754  0.10149872     0.16300
C3010       C  0.88555182  0.93268384  0.09603024    -0.32700
C3011       C  0.87213933  0.91287792  0.08264563     0.20700
C3012       C  0.84733103  0.90803958  0.07538656     0.02900
C3013       C  0.83537680  0.92377464  0.08073437    -0.22500
C3014       C  0.84922375  0.94416195  0.09376493     0.12100
S3015       S  0.88735848  0.97429424  0.11685189    -0.06100
C3016       C  0.86083200  0.98049711  0.11225918    -0.09600
C3017       C  0.84193099  0.96278435  0.09984523    -0.26200
S3018       S  0.83358478  0.88195095  0.05999069    -0.03400
C3019       C  0.86206759  0.87832402  0.06301235    -0.16800
C3020       C  0.88091916  0.89613256  0.07537473    -0.14800
H3021       H  0.90479982  0.93619341  0.10174799     0.20500
H3022       H  0.81632751  0.92052264  0.07484176     0.16600
H3023       H  0.82441680  0.96417497  0.09505166     0.19100
H3024       H  0.89950569  0.89605809  0.07930303     0.12400
C3025       C  0.84507478  0.66336916  0.10050885     0.16300
C3026       C  0.85083786  0.69046420  0.09729876    -0.32700
C3027       C  0.84440820  0.69635911  0.08053180     0.20700
C3028       C  0.83273849  0.67642699  0.06727842     0.02900
C3029       C  0.82686168  0.64898729  0.07050452    -0.22500
C3030       C  0.83331235  0.64300601  0.08747294     0.12100
S3031       S  0.85211945  0.65272684  0.12003021    -0.06100
C3032       C  0.83906995  0.62024584  0.11075129    -0.09600
C3033       C  0.82970752  0.61797962  0.09335197    -0.26200
S3034       S  0.82686800  0.68888186  0.04776669    -0.03400
C3035       C  0.84018685  0.72100418  0.05793704    -0.16800
C3036       C  0.84869339  0.72159349  0.07529751    -0.14800
H3037       H  0.86008891  0.70640454  0.10746304     0.20500
H3038       H  0.81779679  0.63310869  0.06030415     0.16600
H3039       H  0.82128930  0.59923319  0.08535033     0.19100
H3040       H  0.85771740  0.73979863  0.08384000     0.12400
C3041       C  0.97924614  0.85974672  0.13452460     0.16300
C3042       C  0.95993184  0.86295184  0.12444175    -0.32700
C3043       C  0.94863535  0.84593667  0.10939344     0.20700
C3044       C  0.95656113  0.82686953  0.10443282     0.02900
C3045       C  0.97542808  0.82324014  0.11474109    -0.22500
C3046       C  0.98644880  0.84000742  0.12993140     0.12100
S3047       S  0.49218009  0.87323667  0.15492125    -0.06100
C3048       C  0.51209154  0.85755637  0.15483455    -0.09600
C3049       C  0.00510543  0.83964219  0.14164865    -0.26200
S3050       S  0.94186814  0.80954501  0.08507010    -0.03400
C3051       C  0.92425579  0.82756489  0.08394289    -0.16800
C3052       C  0.92973912  0.84610684  0.09781747    -0.14800
H3053       H  0.95410586  0.87819559  0.12810049     0.20500
H3054       H  0.98144887  0.80817953  0.11099160     0.16600
H3055       H  0.01332951  0.82570258  0.14062998     0.19100
H3056       H  0.92098430  0.85956833  0.09905706     0.12400
C3057       C  0.96414980  0.68353827  0.17123548     0.16300
C3058       C  0.98871621  0.70913563  0.17288984    -0.32700
C3059       C  0.98891743  0.72863024  0.18486757     0.20700
C3060       C  0.96588802  0.72293222  0.19497495     0.02900
C3061       C  0.94140727  0.69711745  0.19351817    -0.22500
C3062       C  0.94108037  0.67770877  0.18135466     0.12100
S3063       S  0.95918044  0.65775553  0.15666636    -0.06100
C3064       C  0.92558730  0.63888976  0.16423641    -0.09600
C3065       C  0.91893609  0.65203889  0.17745849    -0.26200
S3066       S  0.97016904  0.75010036  0.20810066    -0.03400
C3067       C  0.50196002  0.76752000  0.19964373    -0.16800
C3068       C  0.50907128  0.75317900  0.18764695    -0.14800
H3069       H  0.00670958  0.71392448  0.16487208     0.20500
H3070       H  0.92320542  0.69259452  0.20121465     0.16600
H3071       H  0.89875010  0.64350509  0.18362987     0.19100
H3072       H  0.52891102  0.76176024  0.18098526     0.12400
C3073       C  0.71912255  0.96510037  0.14803326     0.16300
C3074       C  0.69308371  0.94084462  0.14939692    -0.32700
C3075       C  0.67366985  0.94131641  0.16111918     0.20700
C3076       C  0.67986922  0.96477994  0.17109078     0.02900
C3077       C  0.70579797  0.98896758  0.16969747    -0.22500
C3078       C  0.72511858  0.98851735  0.15797523     0.12100
S3079       S  0.74588786  0.96903355  0.13475995    -0.06100
C3080       C  0.76495316  0.50586199  0.14253201    -0.09600
C3081       C  0.75105137  0.51280528  0.15502791    -0.26200
S3082       S  0.65380403  0.96099697  0.18485413    -0.03400
C3083       C  0.63417389  0.92743180  0.17704935    -0.16800
C3084       C  0.64741362  0.91983727  0.16444921    -0.14800
H3085       H  0.68819632  0.92239727  0.14172509     0.20500
H3086       H  0.70990718  0.50888592  0.17780294     0.16600
H3087       H  0.76017607  0.53225167  0.16234232     0.19100
H3088       H  0.63845229  0.89948094  0.15827251     0.12400
C3089       C  0.60073442  0.94198317  0.28381421     0.16300
C3090       C  0.60403044  0.95147519  0.30140799    -0.32700
C3091       C  0.62274240  0.97979676  0.30452900     0.20700
C3092       C  0.63793006  0.99780594  0.29081994     0.02900
C3093       C  0.63419975  0.98843672  0.27316692    -0.22500
C3094       C  0.61509880  0.96021278  0.27000145     0.12100
S3095       S  0.57918752  0.90835127  0.27727834    -0.06100
C3096       C  0.58901008  0.91916614  0.25568177    -0.09600
C3097       C  0.60812625  0.94727434  0.25375775    -0.26200
S3098       S  0.65861227  0.52993987  0.29791086    -0.03400
C3099       C  0.65259517  0.51800605  0.31953261    -0.16800
C3100       C  0.63674365  0.48927741  0.32121701    -0.14800
H3101       H  0.59255803  0.93739910  0.31219476     0.20500
H3102       H  0.64572917  0.00249388  0.26238621     0.16600
H3103       H  0.61636211  0.95764078  0.24114514     0.19100
H3104       H  0.63142229  0.47815201  0.33376628     0.12400
C3105       C  0.84459313  0.84304483  0.38441680     0.16300
C3106       C  0.84593048  0.83216999  0.40104348    -0.32700
C3107       C  0.87077262  0.83306027  0.40551784     0.20700
C3108       C  0.89299536  0.84374724  0.39380829     0.02900
C3109       C  0.89169437  0.85470637  0.37731478    -0.22500
C3110       C  0.86715146  0.85428345  0.37299196     0.12100
S3111       S  0.81651433  0.84403915  0.37625876    -0.06100
C3112       C  0.83566376  0.86017157  0.35741655    -0.09600
C3113       C  0.86222217  0.86421715  0.35760952    -0.26200
S3114       S  0.92120094  0.84282862  0.40146445    -0.03400
C3115       C  0.90330725  0.82859058  0.42090905    -0.16800
C3116       C  0.87667512  0.82449462  0.42123003    -0.14800
H3117       H  0.82850263  0.82360796  0.41012319     0.20500
H3118       H  0.90916738  0.86337497  0.36826251     0.16600
H3119       H  0.87709645  0.87358558  0.34688457     0.19100
H3120       H  0.86252251  0.81588301  0.43237705     0.12400
C3121       C  0.85440096  0.48313231  0.20677273     0.16300
C3122       C  0.85488690  0.95864448  0.21643317    -0.32700
C3123       C  0.84127825  0.95044240  0.23291084     0.20700
C3124       C  0.82684607  0.96265152  0.23978161     0.02900
C3125       C  0.82449664  0.98296837  0.23006209    -0.22500
C3126       C  0.83787696  0.99097132  0.21346680     0.12100
S3127       S  0.86790259  0.49504170  0.18609628    -0.06100
C3128       C  0.85589992  0.51811999  0.18744641    -0.09600
C3129       C  0.83823938  0.01050562  0.20205933    -0.26200
S3130       S  0.81319586  0.95090879  0.26050840    -0.03400
C3131       C  0.82648718  0.92885077  0.25966294    -0.16800
C3132       C  0.84075650  0.93070879  0.24413761    -0.14800
H3133       H  0.86543852  0.45107071  0.20974272     0.20500
H3134       H  0.81299140  0.99234275  0.23529076     0.16600
H3135       H  0.82755241  0.02195252  0.20443691     0.19100
H3136       H  0.85065612  0.91860039  0.24137191     0.12400
C3137       C  0.91223908  0.85664769  0.27087955     0.16300
C3138       C  0.93023260  0.84669054  0.26687505    -0.32700
C3139       C  0.94818316  0.85859298  0.25230580     0.20700
C3140       C  0.94808151  0.87928635  0.24203106     0.02900
C3141       C  0.93035878  0.88953513  0.24618977    -0.22500
C3142       C  0.91267707  0.87791099  0.26091945     0.12100
S3143       S  0.88787101  0.84395377  0.28742996    -0.06100
C3144       C  0.87879977  0.86812320  0.28119107    -0.09600
C3145       C  0.89376551  0.88485776  0.26696164    -0.26200
S3146       S  0.97148949  0.89093472  0.22490585    -0.03400
C3147       C  0.98195935  0.86810177  0.23189676    -0.16800
C3148       C  0.96761024  0.85217089  0.24659902    -0.14800
H3149       H  0.93017501  0.83030114  0.27473071     0.20500
H3150       H  0.93037114  0.90587787  0.23830679     0.16600
H3151       H  0.89010857  0.90041003  0.26087809     0.19100
H3152       H  0.97164390  0.83712611  0.25305129     0.12400
C3153       C  0.67463060  0.83128905  0.26844249     0.16300
C3154       C  0.64766397  0.82625692  0.26592580    -0.32700
C3155       C  0.64136744  0.83334622  0.24934525     0.20700
C3156       C  0.66098124  0.84491338  0.23589346     0.02900
C3157       C  0.68778547  0.84974067  0.23836934    -0.22500
C3158       C  0.69406467  0.84268664  0.25488852     0.12100
S3159       S  0.68696961  0.82509687  0.28769371    -0.06100
C3160       C  0.71856446  0.83800320  0.27724685    -0.09600
C3161       C  0.71916334  0.84646717  0.25982820    -0.26200
S3162       S  0.64968253  0.85297756  0.21697801    -0.03400
C3163       C  0.61806915  0.84050879  0.22721098    -0.16800
C3164       C  0.61660501  0.83065583  0.24439441    -0.14800
H3165       H  0.63236970  0.81750033  0.27646655     0.20500
H3166       H  0.70321017  0.85891376  0.22792634     0.16600
H3167       H  0.73724864  0.85546034  0.25127565     0.19100
H3168       H  0.59855439  0.82250596  0.25294109     0.12400
C3169       C  0.71482670  0.68315084  0.33746633     0.16300
C3170       C  0.71525295  0.70851258  0.33652139    -0.32700
C3171       C  0.73452775  0.72888001  0.32501078     0.20700
C3172       C  0.75209662  0.72407803  0.31444909     0.02900
C3173       C  0.75186588  0.69875585  0.31553267    -0.22500
C3174       C  0.73313867  0.67865723  0.32747802     0.12100
S3175       S  0.69331776  0.65602406  0.35090751    -0.06100
C3176       C  0.70984468  0.63890665  0.34344398    -0.09600
C3177       C  0.73061490  0.65331689  0.33107003    -0.26200
S3178       S  0.77405585  0.75175627  0.30139641    -0.03400
C3179       C  0.76004285  0.77010293  0.31088211    -0.16800
C3180       C  0.73918460  0.75533762  0.32312282    -0.14800
H3181       H  0.70152828  0.71240346  0.34465316     0.20500
H3182       H  0.76600993  0.69509694  0.30769679     0.16600
H3183       H  0.74306102  0.64558956  0.32502133     0.19100
H3184       H  0.72839675  0.76378032  0.33051524     0.12400
C3185       C  0.77419482  0.95942185  0.35043491     0.16300
C3186       C  0.77492375  0.98125404  0.36038247    -0.32700
C3187       C  0.75177655  0.98483000  0.35949168     0.20700
C3188       C  0.72901140  0.96741845  0.34915824     0.02900
C3189       C  0.72799848  0.94525746  0.33966126    -0.22500
C3190       C  0.75105501  0.94177016  0.34050709     0.12100
S3191       S  0.80056099  0.95223368  0.34878628    -0.06100
C3192       C  0.77989910  0.92504878  0.33475124    -0.09600
C3193       C  0.75410850  0.92196692  0.33165919    -0.26200
S3194       S  0.70421659  0.97660608  0.34822565    -0.03400
C3195       C  0.72445671  0.49939525  0.36403544    -0.16800
C3196       C  0.74933580  0.50189508  0.36925253    -0.14800
H3197       H  0.79458394  0.49350372  0.36991514     0.20500
H3198       H  0.71026784  0.93175299  0.33152428     0.16600
H3199       H  0.73842858  0.90615674  0.32316845     0.19100
H3200       H  0.76455468  0.51853325  0.37750683     0.12400
C3201       C  0.87054040  0.54887739  0.77908220     0.16300
C3202       C  0.86049817  0.04305248  0.79573915    -0.32700
C3203       C  0.85216604  0.01591944  0.80140907     0.20700
C3204       C  0.86341348  0.49992843  0.79406724     0.02900
C3205       C  0.88013145  0.51065587  0.77890947    -0.22500
C3206       C  0.88328272  0.53533464  0.77159615     0.12100
S3207       S  0.87772849  0.57906251  0.76857039    -0.06100
C3208       C  0.89781519  0.57316779  0.75378547    -0.09600
C3209       C  0.89883947  0.54910135  0.75699364    -0.23800
S3210       S  0.85803751  0.47098881  0.80547374    -0.03400
C3211       C  0.83576661  0.97769667  0.81893491    -0.16800
C3212       C  0.84106555  0.00478621  0.81766322    -0.14800
H3213       H  0.85802089  0.05748251  0.80419596     0.20500
H3214       H  0.89046905  0.50038526  0.77317780     0.16600
H3215       H  0.91062470  0.54223361  0.74918562     0.19100
H3216       H  0.83723741  0.01581047  0.82817977     0.12400
C3217       C  0.74133647  0.52278011  0.86303513     0.16300
C3218       C  0.72353617  0.53380934  0.86240570    -0.32700
C3219       C  0.72640909  0.55127187  0.84798462     0.20700
C3220       C  0.74663706  0.55800439  0.83510797     0.02900
C3221       C  0.76422446  0.54691746  0.83568052    -0.22500
C3222       C  0.76086308  0.52896966  0.84976543     0.12100
S3223       S  0.74042476  0.49992365  0.87876542    -0.06100
C3224       C  0.76235651  0.99653051  0.86366603    -0.09600
C3225       C  0.75824416  0.00139585  0.84616734    -0.26200
S3226       S  0.74780332  0.58026990  0.81909431    -0.03400
C3227       C  0.72024641  0.58013069  0.82946494    -0.16800
C3228       C  0.71085337  0.56370253  0.84467515    -0.14800
H3229       H  0.70786305  0.52864177  0.87252815     0.20500
H3230       H  0.77964380  0.55176588  0.82541579     0.16600
H3231       H  0.76233070  0.99224670  0.83464309     0.19100
H3232       H  0.69420795  0.56168846  0.85310611     0.12400
C3233       C  0.73636139  0.77582338  0.81377639     0.16300
C3234       C  0.73472390  0.79961666  0.81789484    -0.32700
C3235       C  0.75660554  0.82091633  0.82756647     0.20700
C3236       C  0.77954681  0.81910141  0.83242735     0.02900
C3237       C  0.78113571  0.79530470  0.82837507    -0.22500
C3238       C  0.75889612  0.77367249  0.81919389     0.12100
S3239       S  0.71109679  0.74670671  0.80329806    -0.06100
C3240       C  0.73085067  0.73137212  0.80676180    -0.09600
C3241       C  0.75571431  0.74813968  0.81531046    -0.26200
S3242       S  0.80397226  0.84725470  0.84401538    -0.03400
C3243       C  0.78258841  0.86114310  0.84284535    -0.16800
C3244       C  0.75813220  0.84491274  0.83367965    -0.14800
H3245       H  0.71684240  0.80113615  0.81416112     0.20500
H3246       H  0.79862887  0.79342765  0.83258852     0.16600
H3247       H  0.77021309  0.74152790  0.81909135     0.19100
H3248       H  0.74231960  0.85042855  0.83160695     0.12400
C3249       C  0.83659647  0.87428355  0.93505233     0.16300
C3250       C  0.84050159  0.85351925  0.94281961    -0.32700
C3251       C  0.85166373  0.85841830  0.96002112     0.20700
C3252       C  0.85864159  0.88292982  0.96901014     0.02900
C3253       C  0.85439395  0.90347465  0.96135134    -0.22500
C3254       C  0.84315632  0.89854728  0.94422010     0.12100
S3255       S  0.82457681  0.87298071  0.91403745    -0.06100
C3256       C  0.82819616  0.90534155  0.91773186    -0.09600
C3257       C  0.83805841  0.91632194  0.93443095    -0.26200
S3258       S  0.87201310  0.88515964  0.98965161    -0.03400
C3259       C  0.86792161  0.85254584  0.98635174    -0.16800
C3260       C  0.85686571  0.84077136  0.96995181    -0.14800
H3261       H  0.83527726  0.83450702  0.93571794     0.20500
H3262       H  0.85975390  0.92255364  0.96841798     0.16600
H3263       H  0.84217180  0.93660798  0.93893288     0.19100
H3264       H  0.85245084  0.82029640  0.96566484     0.12400
C3265       C  0.99426682  0.64804218  0.05001936     0.16300
C3266       C  0.98453664  0.64279210  0.06767374    -0.32700
C3267       C  0.95691931  0.62181626  0.07067420     0.20700
C3268       C  0.93950413  0.60724254  0.05668055     0.02900
C3269       C  0.94931756  0.61222291  0.03906748    -0.22500
C3270       C  0.97711605  0.63265203  0.03612920     0.12100
S3271       S  0.53048992  0.66834052  0.04400497    -0.06100
C3272       C  0.52016630  0.65875972  0.02228858    -0.09600
C3273       C  0.49234575  0.63903810  0.02048780    -0.26200
S3274       S  0.90650885  0.58319481  0.06307142    -0.03400
C3275       C  0.91646234  0.59213971  0.08489615    -0.16800
C3276       C  0.94390392  0.61296283  0.08690467    -0.14800
H3277       H  0.99799394  0.65436195  0.07862248     0.20500
H3278       H  0.93593267  0.60047537  0.02813038     0.16600
H3279       H  0.48213472  0.63074682  0.00788130     0.19100
H3280       H  0.95376891  0.62124283  0.09959705     0.12400
C3281       C  0.65092893  0.65183386  0.88511444     0.16300
C3282       C  0.64867371  0.65931927  0.90268965    -0.32700
C3283       C  0.62451846  0.65985342  0.90733324     0.20700
C3284       C  0.60383242  0.65347351  0.89495732     0.02900
C3285       C  0.60595719  0.64576461  0.87759007    -0.22500
C3286       C  0.62980500  0.64499446  0.87303198     0.12100
S3287       S  0.67853961  0.65029564  0.87639797    -0.06100
C3288       C  0.66098165  0.63990567  0.85645231    -0.09600
C3289       C  0.63533846  0.63801118  0.85673494    -0.26200
S3290       S  0.57652172  0.65589014  0.90270086    -0.03400
C3291       C  0.59265100  0.66524101  0.92305455    -0.16800
C3292       C  0.61808878  0.66647202  0.92365645    -0.14800
H3293       H  0.66497711  0.66455224  0.91225870     0.20500
H3294       H  0.58970025  0.64064733  0.86799375     0.16600
H3295       H  0.62151344  0.63216521  0.84545803     0.19100
H3296       H  0.63116587  0.67208746  0.93529363     0.12400
C3297       C  0.95559252  0.57425904  0.93084096     0.16300
C3298       C  0.94255958  0.54888829  0.92172327    -0.32700
C3299       C  0.91894315  0.54261517  0.91190762     0.20700
C3300       C  0.90855986  0.56064945  0.91130938     0.02900
C3301       C  0.92174237  0.58617489  0.92032221    -0.22500
C3302       C  0.94549725  0.59252563  0.93006188     0.12100
S3303       S  0.98508933  0.58604023  0.94285713    -0.06100
C3304       C  0.98423618  0.61621728  0.94654525    -0.09600
C3305       C  0.96182290  0.61668515  0.93916278    -0.26200
S3306       S  0.87847935  0.54818462  0.89976783    -0.03400
C3307       C  0.87996378  0.51837257  0.89577443    -0.16800
C3308       C  0.90285064  0.51848657  0.90276591    -0.14800
H3309       H  0.95047065  0.53465719  0.92226459     0.20500
H3310       H  0.91377362  0.60035978  0.91984045     0.16600
H3311       H  0.95842813  0.63424929  0.93966960     0.19100
H3312       H  0.90389910  0.99953851  0.90366105     0.12400
C3313       C  0.63591245  0.81052438  0.91776946     0.16300
C3314       C  0.65077231  0.82602216  0.90284088    -0.32700
C3315       C  0.67532437  0.85122303  0.90584366     0.20700
C3316       C  0.68422997  0.86082008  0.92297548     0.02900
C3317       C  0.66888789  0.84578918  0.93788483    -0.22500
C3318       C  0.64472925  0.82025480  0.93488865     0.12100
S3319       S  0.60782840  0.77784181  0.91689190    -0.06100
C3320       C  0.60811476  0.77707187  0.93982708    -0.09600
C3321       C  0.62857954  0.80128161  0.94765675    -0.26200
S3322       S  0.71587845  0.89013103  0.92397778    -0.03400
C3323       C  0.71735946  0.88940980  0.90107770    -0.16800
C3324       C  0.69412451  0.86783729  0.89313854    -0.14800
H3325       H  0.64424163  0.81808266  0.88950451     0.20500
H3326       H  0.67623231  0.85297698  0.95123640     0.16600
H3327       H  0.63239707  0.80420780  0.96182632     0.19100
H3328       H  0.69185373  0.86359643  0.87899193     0.12400
C3329       C  0.97247323  0.75121058  0.97699278     0.16300
C3330       C  0.94940461  0.75471903  0.97651729    -0.32700
C3331       C  0.94786195  0.77225385  0.98934179     0.20700
C3332       C  0.96878989  0.78653219  0.00165065     0.02900
C3333       C  0.99176585  0.78299012  0.00213604    -0.22500
C3334       C  0.99278553  0.76467815  0.98977689     0.12100
S3335       S  0.47464305  0.72357160  0.96580778    -0.06100
C3336       C  0.50480545  0.73369320  0.97726773    -0.09600
C3337       C  0.01240760  0.75708813  0.98904986    -0.26200
S3338       S  0.96279034  0.80627996  0.01639138    -0.03400
C3339       C  0.93135841  0.79426971  0.00628005    -0.16800
C3340       C  0.92610910  0.77646278  0.99206927    -0.14800
H3341       H  0.42905553  0.73623825  0.96990608     0.20500
H3342       H  0.00771974  0.79334626  0.01209280     0.16600
H3343       H  0.02984579  0.76469994  0.99802898     0.19100
H3344       H  0.90706913  0.76654868  0.98451103     0.12400
C3345       C  0.73419692  0.76512341  0.01048814     0.16300
C3346       C  0.71365803  0.76596695  0.00039456    -0.32700
C3347       C  0.68674148  0.74317285  0.00162063     0.20700
C3348       C  0.68049374  0.72032588  0.01226853     0.02900
C3349       C  0.70102963  0.71965903  0.02259893    -0.22500
C3350       C  0.72798201  0.74268159  0.02155035     0.12100
S3351       S  0.76830167  0.78998641  0.00988381    -0.06100
C3352       C  0.77431802  0.77035216  0.02499283    -0.09600
C3353       C  0.75100489  0.74576935  0.03016302    -0.26200
S3354       S  0.64655458  0.69447208  0.01146471    -0.03400
C3355       C  0.64073177  0.71501695  0.99695848    -0.16800
C3356       C  0.66402622  0.74033104  0.99291327    -0.14800
H3357       H  0.71851384  0.78354677  0.99180346     0.20500
H3358       H  0.69624888  0.70190197  0.03098807     0.16600
H3359       H  0.75115239  0.73037894  0.03895696     0.19100
H3360       H  0.66430542  0.75589434  0.98406683     0.12400
loop_ 
_geom_bond_atom_site_label_1 
_geom_bond_atom_site_label_2 
_geom_bond_distance 
_geom_bond_site_symmetry_2 
_ccdc_geom_bond_type 
O1          Cr19   1.959       .  S
O1            C9   1.254       .  A
O2          Cr19   2.033   1_554  S
O2            C3   1.275       .  A
C3            O4   1.261   1_554  A
C3          C752   1.476       .  S
O4          Cr20   1.968       .  S
O5          Cr20   2.018       .  S
O5            C6   1.266       .  A
C6            O7   1.257       .  A
C6         C2464   1.472   1_455  S
O7          Cr21   1.972       .  S
O8          Cr21   2.006       .  S
O8            C9   1.262       .  A
C9          C816   1.462       .  S
O10         Cr19   2.020       .  S
O10          C18   1.270       .  A
O11         Cr19   1.973       .  S
O11          C12   1.253       .  A
C12          O13   1.262       .  A
C12         C835   1.473       .  S
O13         Cr20   2.015       .  S
O14         Cr20   1.992       .  S
O14          C15   1.264       .  A
C15          O16   1.269       .  A
C15         C771   1.475       .  S
O16         Cr21   2.014       .  S
O17         Cr21   1.961       .  S
O17          C18   1.258       .  A
C18         C800   1.473       .  S
Cr19         O22   1.773       .  S
Cr20         O22   1.781       .  S
Cr21         O22   1.772       .  S
O23         Cr41   1.963       .  S
O23          C31   1.254       .  A
O24         Cr41   2.018       .  S
O24          C25   1.269       .  A
C25          O26   1.260       .  A
C25         C691   1.460       .  S
O26         Cr42   1.970       .  S
O27         Cr42   2.028       .  S
O27          C28   1.267       .  A
C28          O29   1.253       .  A
C28        C1627   1.470       .  S
O29         Cr43   1.965       .  S
O30         Cr43   2.024       .  S
O30          C31   1.266       .  A
C31         C704   1.466       .  S
O32         Cr41   2.026       .  S
O32          C40   1.270       .  A
O33         Cr41   1.972       .  S
O33          C34   1.258       .  A
C34          O35   1.267       .  A
C34         C723   1.477       .  S
O35         Cr42   2.024       .  S
O36         Cr42   1.969       .  S
O36          C37   1.260       .  A
C37          O38   1.274       .  A
C37         C736   1.473       .  S
O38         Cr43   2.030       .  S
O39         Cr43   1.952       .  S
O39          C40   1.255       .  A
C40         C803   1.470       .  S
Cr41         O44   1.765       .  S
Cr42         O44   1.771       .  S
Cr43         O44   1.768       .  S
O45         Cr63   1.956       .  S
O45          C53   1.255       .  A
O46         Cr63   2.029       .  S
O46          C47   1.273       .  A
C47          O48   1.264       .  A
C47         C592   1.478       .  S
O48         Cr64   1.972       .  S
O49         Cr64   2.020       .  S
O49          C50   1.266       .  A
C50          O51   1.257       .  A
C50         C624   1.469       .  S
O51         Cr65   1.978       .  S
O52         Cr65   2.015       .  S
O52          C53   1.266       .  A
C53         C659   1.464       .  S
O54         Cr63   2.016       .  S
O54          C62   1.267       .  A
O55         Cr63   1.964       .  S
O55          C56   1.253       .  A
C56          O57   1.263       .  A
C56         C672   1.471       .  S
O57         Cr64   2.022       .  S
O58         Cr64   1.984       .  S
O58          C59   1.264       .  A
C59          O60   1.271       .  A
C59         C611   1.473       .  S
O60         Cr65   2.024       .  S
O61         Cr65   1.963       .  S
O61          C62   1.258       .  A
C62         C640   1.472       .  S
Cr63         O66   1.769       .  S
Cr64         O66   1.771       .  S
Cr65         O66   1.767       .  S
O67         Cr85   1.993       .  S
O67          C75   1.259       .  A
O68         Cr85   1.981       .  S
O68          C69   1.266       .  A
C69          O70   1.272       .  A
C69         C528   1.477       .  S
O70         Cr86   2.016       .  S
O71         Cr86   1.986       .  S
O71          C72   1.261       .  A
C72          O73   1.259       .  A
C72        C2307   1.468   1_455  S
O73         Cr87   1.983       .  S
O74         Cr87   1.993       .  S
O74          C75   1.258       .  A
C75         C547   1.473       .  S
O76         Cr85   1.983       .  S
O76          C84   1.264       .  A
O77         Cr85   1.989       .  S
O77          C78   1.256       .  A
C78          O79   1.256       .  A
C78         C563   1.476       .  S
O79         Cr86   1.992       .  S
O80         Cr86   1.994       .  S
O80          C81   1.264       .  A
C81          O82   1.263       .  A
C81         C576   1.471       .  S
O82         Cr87   1.985       .  S
O83         Cr87   2.006       .  S
O83          C84   1.267       .  A
C84         C643   1.472       .  S
Cr85         O88   1.785       .  S
Cr86         O88   1.780       .  S
Cr87         O88   1.782       .  S
O89        Cr107   1.995       .  S
O89          C97   1.260       .  A
O90        Cr107   1.984       .  S
O90          C91   1.266       .  A
C91          O92   1.271       .  A
C91         C608   1.473       .  S
O92        Cr108   2.013       .  S
O93        Cr108   1.974       .  S
O93          C94   1.257       .  A
C94          O95   1.259       .  A
C94        C1336   1.463   1_545  S
O95        Cr109   1.984       .  S
O96        Cr109   1.995       .  S
O96          C97   1.260       .  A
C97         C560   1.475       .  S
O98        Cr107   1.985       .  S
O98         C106   1.265       .  A
O99        Cr107   1.991       .  S
O99         C100   1.256       .  A
C100        O101   1.254       .  A
C100        C544   1.470       .  S
O101       Cr108   1.982       .  S
O102       Cr108   2.000       .  S
O102        C103   1.265       .  A
C103        O104   1.263       .  A
C103        C755   1.472       .  S
O104       Cr109   1.986       .  S
O105       Cr109   2.003       .  S
O105        C106   1.266       .  A
C106        C512   1.472       .  S
Cr107       O110   1.782       .  S
Cr108       O110   1.777       .  S
Cr109       O110   1.782       .  S
O111       Cr129   1.961       .  S
O111        C119   1.251       .  A
O112       Cr129   2.025   1_556  S
O112        C113   1.271       .  A
C113        O114   1.261   1_556  A
C113        C739   1.475       .  S
O114       Cr130   1.967       .  S
O115       Cr130   2.017       .  S
O115        C116   1.267       .  A
C116        O117   1.256       .  A
C116        C499   1.460       .  S
O117       Cr131   1.967       .  S
O118       Cr131   2.028       .  S
O118        C119   1.266       .  A
C119        C832   1.468       .  S
O120       Cr129   2.043       .  S
O120        C128   1.274       .  A
O121       Cr129   1.955       .  S
O121        C122   1.254       .  A
C122        O123   1.264       .  A
C122        C819   1.458       .  S
O123       Cr130   2.008       .  S
O124       Cr130   1.976       .  S
O124        C125   1.261       .  A
C125        O126   1.272       .  A
C125        C531   1.478       .  S
O126       Cr131   2.037       .  S
O127       Cr131   1.937       .  S
O127        C128   1.255       .  A
C128        C515   1.477       .  S
Cr129       O132   1.771       .  S
Cr130       O132   1.766       .  S
Cr131       O132   1.766       .  S
O133       Cr151   1.964       .  S
O133        C141   1.255       .  A
O134       Cr151   2.029       .  S
O134        C135   1.272       .  A
C135        O136   1.264       .  A
C135        C768   1.479       .  S
O136       Cr152   1.973       .  S
O137       Cr152   2.026       .  S
O137        C138   1.266       .  A
C138        O139   1.258       .  A
C138        C467   1.470       .  S
O139       Cr153   1.978       .  S
O140       Cr153   2.027       .  S
O140        C141   1.267       .  A
C141        C720   1.467       .  S
O142       Cr151   2.030       .  S
O142        C150   1.270       .  A
O143       Cr151   1.970       .  S
O143        C144   1.256       .  A
C144        O145   1.265       .  A
C144        C707   1.469       .  S
O145       Cr152   2.018       .  S
O146       Cr152   1.979       .  S
O146        C147   1.262       .  A
C147        O148   1.272       .  A
C147        C448   1.476       .  S
O148       Cr153   2.024       .  S
O149       Cr153   1.960       .  S
O149        C150   1.257       .  A
C150        C480   1.479       .  S
Cr151       O154   1.767       .  S
Cr152       O154   1.771       .  S
Cr153       O154   1.765       .  S
O155       Cr173   2.001       .  S
O155        C163   1.262       .  A
O156       Cr173   1.968       .  S
O156        C157   1.262       .  A
C157        O158   1.273       .  A
C157        C400   1.471       .  S
O158       Cr174   2.026       .  S
O159       Cr174   1.982       .  S
O159        C160   1.259       .  A
C160        O161   1.262       .  A
C160       C2144   1.475       .  S
O161       Cr175   1.998       .  S
O162       Cr175   1.980       .  S
O162        C163   1.258       .  A
C163        C416   1.463       .  S
O164       Cr173   1.980       .  S
O164        C172   1.262       .  A
O165       Cr173   1.993       .  S
O165        C166   1.257       .  A
C166        O167   1.255       .  A
C166        C432   1.469       .  S
O167       Cr174   1.982       .  S
O168       Cr174   2.006       .  S
O168        C169   1.268       .  A
C169        O170   1.260       .  A
C169        C688   1.467       .  S
O170       Cr175   1.970       .  S
O171       Cr175   2.017       .  S
O171        C172   1.268       .  A
C172        C483   1.476       .  S
Cr173       O176   1.779       .  S
Cr174       O176   1.776       .  S
Cr175       O176   1.774       .  S
O177       Cr195   1.958       .  S
O177        C185   1.252       .  A
O178       Cr195   2.012       .  S
O178        C179   1.267       .  A
C179        O180   1.261       .  A
C179        C320   1.472       .  S
O180       Cr196   1.974       .  S
O181       Cr196   2.011       .  S
O181        C182   1.266       .  A
C182        O183   1.255       .  A
C182       C2016   1.462       .  S
O183       Cr197   1.964       .  S
O184       Cr197   2.021       .  S
O184        C185   1.265       .  A
C185        C371   1.461       .  S
O186       Cr195   2.019       .  S
O186        C194   1.269       .  A
O187       Cr195   1.959       .  S
O187        C188   1.257       .  A
C188        O189   1.266       .  A
C188        C384   1.464       .  S
O189       Cr196   2.013       .  S
O190       Cr196   1.983       .  S
O190        C191   1.263       .  A
C191        O192   1.271       .  A
C191        C595   1.475       .  S
O192       Cr197   2.021       .  S
O193       Cr197   1.955       .  S
O193        C194   1.257       .  A
C194        C352   1.467       .  S
Cr195       O198   1.763       .  S
Cr196       O198   1.768       .  S
Cr197       O198   1.766       .  S
O199       Cr217   1.964       .  S
O199        C207   1.254       .  A
O200       Cr217   2.013       .  S
O200        C201   1.265       .  A
C201        O202   1.261       .  A
C201        C579   1.468       .  S
O202       Cr218   1.981       .  S
O203       Cr218   2.004       .  S
O203        C204   1.264       .  A
C204        O205   1.260       .  A
C204       C1179   1.470   1_545  S
O205       Cr219   1.982       .  S
O206       Cr219   2.012       .  S
O206        C207   1.263       .  A
C207        C675   1.456       .  S
O208       Cr217   2.021       .  S
O208        C216   1.269       .  A
O209       Cr217   1.962       .  S
O209        C210   1.256       .  A
C210        O211   1.266       .  A
C210        C656   1.463       .  S
O211       Cr218   2.012       .  S
O212       Cr218   1.987       .  S
O212        C213   1.264       .  A
C213        O214   1.267       .  A
C213        C304   1.472       .  S
O214       Cr219   2.006       .  S
O215       Cr219   1.955       .  S
O215        C216   1.257       .  A
C216        C355   1.469       .  S
Cr217       O220   1.773       .  S
Cr218       O220   1.767       .  S
Cr219       O220   1.771       .  S
O221       Cr239   1.958       .  S
O221        C229   1.255       .  A
O222       Cr239   2.025       .  S
O222        C223   1.271       .  A
C223        O224   1.262       .  A
C223        C451   1.480       .  S
O224       Cr240   1.972       .  S
O225       Cr240   2.006       .  S
O225        C226   1.264       .  A
C226        O227   1.259       .  A
C226       C1112   1.469       .  S
O227       Cr241   1.977       .  S
O228       Cr241   2.015       .  S
O228        C229   1.265       .  A
C229        C435   1.470       .  S
O230       Cr239   2.012       .  S
O230        C238   1.267       .  A
O231       Cr239   1.963       .  S
O231        C232   1.253       .  A
C232        O233   1.264       .  A
C232        C419   1.472       .  S
O233       Cr240   2.015       .  S
O234       Cr240   1.985       .  S
O234        C235   1.264       .  A
C235        O236   1.270       .  A
C235        C323   1.476       .  S
O236       Cr241   2.018       .  S
O237       Cr241   1.958       .  S
O237        C238   1.257       .  A
C238        C288   1.466       .  S
Cr239       O242   1.775       .  S
Cr240       O242   1.774       .  S
Cr241       O242   1.776       .  S
O243       Cr261   1.962       .  S
O243        C251   1.255       .  A
O244       Cr261   2.021       .  S
O244        C245   1.268       .  A
C245        O246   1.260       .  A
C245        C307   1.472       .  S
O246       Cr262   1.970       .  S
O247       Cr262   2.004       .  S
O247        C248   1.265       .  A
C248        O249   1.257       .  A
C248        C275   1.462       .  S
O249       Cr263   1.973       .  S
O250       Cr263   2.009       .  S
O250        C251   1.263       .  A
C251        C387   1.452       .  S
O252       Cr261   2.015       .  S
O252        C260   1.268       .  A
O253       Cr261   1.963       .  S
O253        C254   1.256       .  A
C254        O255   1.264       .  A
C254        C368   1.461       .  S
O255       Cr262   2.012       .  S
O256       Cr262   1.986       .  S
O256        C257   1.263       .  A
C257        O258   1.268       .  A
C257        C403   1.472       .  S
O258       Cr263   2.016       .  S
O259       Cr263   1.963       .  S
O259        C260   1.259       .  A
C260        C291   1.469       .  S
Cr261       O264   1.764       .  S
Cr262       O264   1.765       .  S
Cr263       O264   1.765       .  S
C265        S271   1.701       .  A
C265        C270   1.387       .  A
C265        C266   1.396       .  A
C266        C267   1.398       .  A
C266        H277   1.084       .  S
C267        C276   1.363       .  A
C267        C268   1.387       .  A
C268        S274   1.706       .  A
C268        C269   1.400       .  A
C269        C270   1.401       .  A
C269        H278   1.084       .  S
C270        C273   1.367       .  A
S271        C272   1.721       .  A
C272       C1066   1.463   1_545  S
C272        C273   1.385       .  A
C273        H279   1.084       .  S
S274        C275   1.722       .  A
C275        C276   1.382       .  A
C276        H280   1.084       .  S
C281        S287   1.708       .  A
C281        C286   1.387       .  A
C281        C282   1.399       .  A
C282        C283   1.401       .  A
C282        H293   1.083       .  S
C283        C292   1.366       .  A
C283        C284   1.387       .  A
C284        S290   1.709       .  A
C284        C285   1.400       .  A
C285        C286   1.403       .  A
C285        H294   1.083       .  S
C286        C289   1.367       .  A
S287        C288   1.720       .  A
C288        C289   1.386       .  A
C289        H295   1.083       .  S
S290        C291   1.722       .  A
C291        C292   1.386       .  A
C292        H296   1.083       .  S
C297        S303   1.700       .  A
C297        C302   1.387       .  A
C297        C298   1.397       .  A
C298        C299   1.398       .  A
C298        H309   1.083       .  S
C299        C308   1.366       .  A
C299        C300   1.387       .  A
C300        S306   1.713       .  A
C300        C301   1.406       .  A
C301        C302   1.407       .  A
C301        H310   1.083       .  S
C302        C305   1.376       .  A
S303        C304   1.722       .  A
C304        C305   1.389       .  A
C305        H311   1.083       .  S
S306        C307   1.725       .  A
C307        C308   1.384       .  A
C308        H312   1.084       .  S
C313        S319   1.710       .  A
C313        C314   1.404       .  A
C313       C1998   1.387       .  A
C314       C1995   1.405       .  A
C314        H325   1.083       .  S
C315        C324   1.376       .  A
C315        C316   1.387       .  A
C315       C1994   1.407       .  A
C316        S322   1.704       .  A
C316        C317   1.400       .  A
C317        C318   1.401       .  A
C317        H326   1.083       .  S
C318        C321   1.369       .  A
C318       C1993   1.386   1_455  A
S319        C320   1.725       .  A
C320       C2001   1.385       .  A
C321       C2000   1.386   1_455  A
C321        H327   1.083       .  S
S322        C323   1.723       .  A
C323        C324   1.390       .  A
C324        H328   1.083       .  S
C329        S335   1.707       .  A
C329        C334   1.387       .  A
C329        C330   1.402       .  A
C330        C331   1.403       .  A
C330        H341   1.083       .  S
C331        C340   1.371       .  A
C331        C332   1.387       .  A
C332        S338   1.700       .  A
C332        C333   1.397       .  A
C333        C334   1.398       .  A
C333        H342   1.083       .  S
C334        C337   1.365       .  A
S335        C336   1.724       .  A
C336       C1862   1.465   1_455  S
C336        C337   1.383       .  A
C337       H2023   1.083   1_455  S
S338        C339   1.722       .  A
C339       C1044   1.467       .  S
C339        C340   1.387       .  A
C340        H344   1.083       .  S
H343       C2017   1.083       .  S
C345        S351   1.708       .  A
C345        C350   1.387       .  A
C345        C346   1.398       .  A
C346        C347   1.401       .  A
C346        H357   1.084       .  S
C347        C356   1.364       .  A
C347        C348   1.387       .  A
C348        S354   1.712       .  A
C348        C349   1.401       .  A
C349        C350   1.404       .  A
C349        H358   1.084       .  S
C350        C353   1.367       .  A
S351        C352   1.719       .  A
C352        C353   1.387       .  A
C353        H359   1.084       .  S
S354        C355   1.722       .  A
C355        C356   1.386       .  A
C356        H360   1.084       .  S
C361        S367   1.707       .  A
C361        C366   1.387       .  A
C361        C362   1.402       .  A
C362        C363   1.402       .  A
C362        H373   1.083       .  S
C363        C372   1.371   1_455  A
C363        C364   1.389       .  A
C364       S2050   1.698       .  A
C364        C365   1.396       .  A
C365        C366   1.397       .  A
C365        H374   1.083       .  S
C366        C369   1.364       .  A
S367        C368   1.722       .  A
C368        C369   1.382       .  A
C369        H375   1.083       .  S
S370        C371   1.720       .  A
S370       C2044   1.700       .  A
C371       C2052   1.384       .  A
C372       C2051   1.383       .  A
C372        H376   1.083       .  S
C377        S383   1.707       .  A
C377        C382   1.387       .  A
C377        C378   1.400       .  A
C378        C379   1.402       .  A
C378        H389   1.083       .  S
C379        C388   1.367       .  A
C379        C380   1.389       .  A
C380        S386   1.702       .  A
C380        C381   1.396       .  A
C381        C382   1.398       .  A
C381        H390   1.083       .  S
C382        C385   1.363       .  A
S383        C384   1.722       .  A
C384        C385   1.384       .  A
C385        H391   1.083       .  S
S386        C387   1.716       .  A
C387        C388   1.382       .  A
C388        H392   1.083       .  S
C393        S399   1.709       .  A
C393        C394   1.404       .  A
C393       C2078   1.387       .  A
C394       C2075   1.404       .  A
C394        H405   1.083       .  S
C395        C404   1.375       .  A
C395        C396   1.387       .  A
C395       C2074   1.404       .  A
C396        S402   1.705       .  A
C396        C397   1.402       .  A
C397        C398   1.401       .  A
C397        H406   1.083       .  S
C398        C401   1.373   1_455  A
C398       C2073   1.387   1_455  A
S399        C400   1.722       .  A
C400       C2081   1.386       .  A
C401       C2080   1.384       .  A
C401        H407   1.083       .  S
S402        C403   1.723       .  A
C403        C404   1.387       .  A
C404        H408   1.083       .  S
C409        S415   1.711       .  A
C409        C414   1.387       .  A
C409        C410   1.401       .  A
C410        C411   1.403       .  A
C410        H421   1.083       .  S
C411        C420   1.368       .  A
C411        C412   1.387       .  A
C412        S418   1.711       .  A
C412       C2093   1.401       .  A
C413       C2092   1.400       .  A
C413       C2094   1.402       .  A
C413        H422   1.083       .  S
C414       C2093   1.403       .  A
C414       C2097   1.368   1_455  A
S415       C2096   1.721   1_455  A
C416       S2095   1.719       .  A
C416        C417   1.385       .  A
C417       C2094   1.366       .  A
C417        H423   1.084       .  S
S418        C419   1.722       .  A
C419        C420   1.388       .  A
C420        H424   1.083       .  S
C425        S431   1.707       .  A
C425        C430   1.387       .  A
C425        C426   1.399       .  A
C426        C427   1.401       .  A
C426        H437   1.084   1_545  S
C427        C428   1.387       .  A
C427       C1276   1.365   1_545  A
C428        S434   1.711       .  A
C428        C429   1.400       .  A
C429        C430   1.403       .  A
C429        H438   1.083       .  S
C430        C433   1.367       .  A
S431        C432   1.722       .  A
C432        C433   1.387       .  A
C433        H439   1.083       .  S
S434       C1275   1.720   1_545  A
C435       S1274   1.722       .  A
C435        C436   1.386       .  A
C436       C1267   1.365       .  A
C436        H440   1.084       .  S
C441        S447   1.713       .  A
C441        C446   1.386       .  A
C441        C442   1.408       .  A
C442        C443   1.408   1_545  A
C442        H453   1.083   1_545  S
C443        C444   1.387   1_565  A
C443       C1292   1.378       .  A
C444       S1290   1.700       .  A
C444        C445   1.398       .  A
C445        C446   1.398       .  A
C445        H454   1.083       .  S
C446        C449   1.368       .  A
S447        C448   1.728       .  A
C448        C449   1.384       .  A
C449        H455   1.083       .  S
S450        C451   1.724       .  A
S450       C1284   1.704       .  A
C451        C452   1.391       .  A
C452       C1283   1.379       .  A
C452        H456   1.083       .  S
C457        S463   1.714       .  A
C457        C462   1.386       .  A
C457        C458   1.405       .  A
C458        C459   1.406       .  A
C458        H469   1.083       .  S
C459        C468   1.374       .  A
C459        C460   1.387       .  A
C460        S466   1.709       .  A
C460        C461   1.401       .  A
C461        C462   1.403       .  A
C461        H470   1.083       .  S
C462        C465   1.370       .  A
S463        C464   1.725       .  A
C464       C1840   1.476   1_455  S
C464        C465   1.388       .  A
C465        H471   1.083       .  S
S466        C467   1.721       .  A
C467        C468   1.388       .  A
C468        H472   1.083       .  S
C473        S479   1.716       .  A
C473        C478   1.386       .  A
C473        C474   1.405       .  A
C474        C475   1.407       .  A
C474        H485   1.084       .  S
C475        C484   1.373       .  A
C475        C476   1.387       .  A
C476        S482   1.708       .  A
C476        C477   1.400       .  A
C477        C478   1.402       .  A
C477        H486   1.084       .  S
C478        C481   1.368       .  A
S479        C480   1.725       .  A
C480        C481   1.389       .  A
C481        H487   1.084       .  S
S482        C483   1.723       .  A
C483        C484   1.390       .  A
C484        H488   1.083       .  S
C489        S495   1.707       .  A
C489        C494   1.387       .  A
C489        C490   1.399       .  A
C490        C491   1.401       .  A
C490        H501   1.084       .  S
C491        C500   1.366       .  A
C491        C492   1.388       .  A
C492        S498   1.706       .  A
C492        C493   1.398       .  A
C493        C494   1.400       .  A
C493        H502   1.084       .  S
C494        C497   1.364       .  A
S495        C496   1.721       .  A
C496        C934   1.464       .  S
C496        C497   1.385       .  A
C497        H503   1.084       .  S
S498        C499   1.720       .  A
C499        C500   1.384       .  A
C500        H504   1.084       .  S
C505        S511   1.705       .  A
C505        C510   1.387       .  A
C505        C506   1.394       .  A
C506        C507   1.398       .  A
C506        H517   1.084       .  S
C507        C516   1.358       .  A
C507        C508   1.385       .  A
C508        S514   1.722       .  A
C508        C509   1.407       .  A
C509        C510   1.410       .  A
C509        H518   1.083       .  S
C510        C513   1.372       .  A
S511        C512   1.718       .  A
C512        C513   1.392       .  A
C513        H519   1.083       .  S
S514        C515   1.726       .  A
C515        C516   1.387       .  A
C516        H520   1.084       .  S
C521       S2207   1.711       .  A
C521        C526   1.387       .  A
C521        C522   1.406       .  A
C522        C523   1.406       .  A
C522        H533   1.083       .  S
C523        C532   1.378       .  A
C523        C524   1.387       .  A
C524        S530   1.709       .  A
C524        C525   1.405       .  A
C525        C526   1.404       .  A
C525        H534   1.083       .  S
C526        C529   1.376       .  A
S527        C528   1.725   1_655  A
S527       C2201   1.710       .  A
C528       C2209   1.388       .  A
C529       C2208   1.388       .  A
C529        H535   1.083       .  S
S530        C531   1.724       .  A
C531        C532   1.389       .  A
C532        H536   1.083       .  S
C537        S543   1.710       .  A
C537        C542   1.387       .  A
C537        C538   1.400       .  A
C538        C539   1.403       .  A
C538        H549   1.084       .  S
C539        C540   1.387       .  A
C539       C2228   1.367       .  A
C540        S546   1.710       .  A
C540        C541   1.400       .  A
C541        C542   1.402       .  A
C541        H550   1.084       .  S
C542        C545   1.367       .  A
S543        C544   1.723       .  A
C544        C545   1.386       .  A
C545        H551   1.084       .  S
S546       C2227   1.722       .  A
C547       S2226   1.723   1_455  A
C547        C548   1.387       .  A
C548       C2219   1.365   1_455  A
C548        H552   1.084       .  S
C553        S559   1.716       .  A
C553        C558   1.386       .  A
C553        C554   1.404       .  A
C554        C555   1.407       .  A
C554        H565   1.083       .  S
C555        C564   1.372       .  A
C555        C556   1.386       .  A
C556        S562   1.711       .  A
C556        C557   1.401       .  A
C557        C558   1.404       .  A
C557       H1406   1.083       .  S
C558       C1401   1.368       .  A
S559       C1400   1.724       .  A
C560       S1399   1.723   1_545  A
C560        C561   1.388       .  A
C561       C1398   1.368   1_545  A
C561        H567   1.083       .  S
S562        C563   1.722       .  A
C563        C564   1.390       .  A
C564        H568   1.083       .  S
H566       C1397   1.083   1_545  S
C569        S575   1.709       .  A
C569        C574   1.387       .  A
C569        C570   1.402       .  A
C570        C571   1.403       .  A
C570        H581   1.083       .  S
C571        C572   1.387       .  A
C571       C1420   1.370       .  A
C572       S1418   1.712       .  A
C572        C573   1.404       .  A
C573        C574   1.405       .  A
C573        H582   1.083       .  S
C574        C577   1.372       .  A
S575        C576   1.721       .  A
C576        C577   1.388       .  A
C577        H583   1.083       .  S
S578        C579   1.723       .  A
S578       C1412   1.712   1_545  A
C579        C580   1.384   1_545  A
C580       C1411   1.369       .  A
C580        H584   1.083       .  S
C585        S591   1.715       .  A
C585        C590   1.386       .  A
C585        C586   1.408       .  A
C586        C587   1.408       .  A
C586        H597   1.083       .  S
C587        C596   1.377       .  A
C587        C588   1.387       .  A
C588        S594   1.704       .  A
C588        C589   1.399       .  A
C589        C590   1.400       .  A
C589        H598   1.083       .  S
C590        C593   1.368       .  A
S591        C592   1.727       .  A
C592        C593   1.386       .  A
C593        H599   1.083       .  S
S594        C595   1.721       .  A
C595        C596   1.391       .  A
C596        H600   1.083       .  S
C601        S607   1.706       .  A
C601       C1446   1.387       .  A
C601       C1442   1.401       .  A
C602        C603   1.402       .  A
C602       C1441   1.402       .  A
C602       H1453   1.084       .  S
C603        C612   1.372       .  A
C603        C604   1.387       .  A
C604        S610   1.712       .  A
C604        C605   1.405       .  A
C605        C606   1.406       .  A
C605        H614   1.083       .  S
C606        C609   1.376       .  A
C606       C1441   1.387       .  A
S607        C608   1.721   1_565  A
C608       C1449   1.389       .  A
C609       C1448   1.388       .  A
C609        H615   1.083       .  S
S610        C611   1.724       .  A
C611        C612   1.386       .  A
C612        H616   1.084       .  S
H613       C1442   1.084       .  S
C617        S623   1.706       .  A
C617        C622   1.387       .  A
C617        C618   1.402       .  A
C618        C619   1.402       .  A
C618        H629   1.083       .  S
C619        C628   1.372       .  A
C619        C620   1.387       .  A
C620        S626   1.706       .  A
C620        C621   1.403       .  A
C621        C622   1.403       .  A
C621        H630   1.083       .  S
C622        C625   1.373       .  A
S623        C624   1.722       .  A
C624        C625   1.387       .  A
C625        H631   1.083       .  S
S626        C627   1.724       .  A
C627       C1752   1.470       .  S
C627        C628   1.386       .  A
C628        H632   1.083       .  S
C633        S639   1.711       .  A
C633        C638   1.386       .  A
C633        C634   1.401       .  A
C634        C635   1.404       .  A
C634        H645   1.083       .  S
C635        C644   1.368       .  A
C635        C636   1.387       .  A
C636        S642   1.709       .  A
C636        C637   1.400       .  A
C637        C638   1.402       .  A
C637        H646   1.084       .  S
C638        C641   1.366       .  A
S639        C640   1.723       .  A
C640        C641   1.387       .  A
C641        H647   1.084       .  S
S642        C643   1.722       .  A
C643        C644   1.388       .  A
C644        H648   1.084       .  S
C649        S655   1.707       .  A
C649        C654   1.388       .  A
C649        C650   1.398       .  A
C650        C651   1.401       .  A
C650        H661   1.083       .  S
C651        C660   1.365       .  A
C651        C652   1.387       .  A
C652        S658   1.713       .  A
C652        C653   1.402       .  A
C653        C654   1.404       .  A
C653        H662   1.083       .  S
C654        C657   1.369       .  A
S655        C656   1.718       .  A
C656        C657   1.386       .  A
C657        H663   1.083       .  S
S658        C659   1.720       .  A
C659        C660   1.384       .  A
C660        H664   1.083       .  S
C665        S671   1.713       .  A
C665        C670   1.386       .  A
C665        C666   1.405       .  A
C666        C667   1.406       .  A
C666       H1517   1.084       .  S
C667        C668   1.388       .  A
C667       C1516   1.373       .  A
C668        S674   1.702       .  A
C668        C669   1.397       .  A
C669        C670   1.398       .  A
C669        H678   1.084       .  S
C670        C673   1.365       .  A
S671        C672   1.725       .  A
C672        C673   1.384       .  A
C673        H679   1.084       .  S
S674       C1515   1.718       .  A
C675       S1514   1.716   1_545  A
C675        C676   1.384       .  A
C676       C1507   1.370   1_545  A
C676        H680   1.084       .  S
H677       C1506   1.084   1_545  S
C681        S687   1.705       .  A
C681        C686   1.388       .  A
C681       C1522   1.399       .  A
C682        C683   1.402       .  A
C682       C1521   1.401       .  A
C682        H693   1.084       .  S
C683        C692   1.370       .  A
C683       C1524   1.388       .  A
C684        S690   1.710       .  A
C684        C685   1.402   1_565  A
C684       C1523   1.388   1_565  A
C685        C686   1.403       .  A
C685        H694   1.083   1_545  S
C686        C689   1.370       .  A
S687        C688   1.721       .  A
C688        C689   1.386       .  A
C689        H695   1.083       .  S
S690       C1531   1.720       .  A
C691       S1530   1.718       .  A
C691        C692   1.383       .  A
C692        H696   1.083       .  S
C697        S703   1.702       .  A
C697        C702   1.388       .  A
C697        C698   1.399       .  A
C698        C699   1.399       .  A
C698        H709   1.084       .  S
C699        C708   1.367       .  A
C699        C700   1.387       .  A
C700        S706   1.710       .  A
C700        C701   1.403       .  A
C701        C702   1.404       .  A
C701        H710   1.083       .  S
C702       C1545   1.373       .  A
S703       C1544   1.721       .  A
C704       S1543   1.721       .  A
C704        C705   1.386       .  A
C705       C1542   1.375       .  A
C705        H711   1.083       .  S
S706        C707   1.723       .  A
C707        C708   1.385       .  A
C708        H712   1.084       .  S
C713        S719   1.707       .  A
C713        C718   1.387       .  A
C713        C714   1.401       .  A
C714        C715   1.402       .  A
C714        H725   1.083       .  S
C715        C724   1.371       .  A
C715        C716   1.386       .  A
C716        S722   1.712       .  A
C716        C717   1.405       .  A
C717        C718   1.406       .  A
C717        H726   1.083       .  S
C718        C721   1.375       .  A
S719        C720   1.720       .  A
C720        C721   1.387       .  A
C721        H727   1.083       .  S
S722        C723   1.725       .  A
C723        C724   1.387       .  A
C724        H728   1.083       .  S
C729        S735   1.709       .  A
C729        C734   1.387       .  A
C729        C730   1.406       .  A
C730        C731   1.406       .  A
C730        H741   1.083       .  S
C731        C740   1.377       .  A
C731        C732   1.387       .  A
C732        S738   1.701       .  A
C732        C733   1.399       .  A
C733        C734   1.399       .  A
C733        H742   1.083       .  S
C734        C737   1.370       .  A
S735        C736   1.727       .  A
C736        C737   1.384       .  A
C737        H743   1.083       .  S
S738        C739   1.723       .  A
C739        C740   1.390       .  A
C740        H744   1.083       .  S
C745       S2431   1.717       .  A
C745        C750   1.386       .  A
C745        C746   1.406       .  A
C746        C747   1.408       .  A
C746        H757   1.083       .  S
C747        C756   1.374       .  A
C747        C748   1.387       .  A
C748        S754   1.711       .  A
C748        C749   1.401       .  A
C749        C750   1.403       .  A
C749        H758   1.083       .  S
C750       C2433   1.369       .  A
S751        C752   1.723       .  A
S751       C2425   1.710   1_455  A
C752        C753   1.390       .  A
C753       C2430   1.379   1_455  A
C753        H759   1.083   1_455  S
S754        C755   1.721       .  A
C755        C756   1.389       .  A
C756        H760   1.083       .  S
C761        S767   1.715       .  A
C761        C766   1.386       .  A
C761        C762   1.409       .  A
C762        C763   1.409       .  A
C762        H773   1.082       .  S
C763        C772   1.379       .  A
C763        C764   1.387       .  A
C764        S770   1.701       .  A
C764        C765   1.398       .  A
C765        C766   1.399       .  A
C765        H774   1.083       .  S
C766        C769   1.369       .  A
S767        C768   1.728       .  A
C768        C769   1.386       .  A
C769        H775   1.083       .  S
S770        C771   1.721       .  A
C771        C772   1.391       .  A
C772        H776   1.082       .  S
C777        S783   1.704       .  A
C777        C782   1.387       .  A
C777        C778   1.400       .  A
C778        C779   1.401       .  A
C778        H789   1.083       .  S
C779        C788   1.369       .  A
C779        C780   1.387       .  A
C780        S786   1.704       .  A
C780        C781   1.400       .  A
C781        C782   1.401       .  A
C781        H790   1.083       .  S
C782        C785   1.368       .  A
S783        C784   1.722       .  A
C784       C1686   1.467       .  S
C784        C785   1.385       .  A
C785        H791   1.083       .  S
S786        C787   1.723       .  A
C787        C868   1.466   1_545  S
C787        C788   1.385       .  A
C788       H1632   1.083   1_545  S
H792       C1628   1.083       .  S
C793        S799   1.703       .  A
C793        C798   1.387       .  A
C793        C794   1.402       .  A
C794        C795   1.401       .  A
C794        H805   1.083       .  S
C795        C804   1.374       .  A
C795        C796   1.388       .  A
C796        S802   1.702       .  A
C796        C797   1.402       .  A
C797        C798   1.401       .  A
C797        H806   1.083       .  S
C798        C801   1.374       .  A
S799        C800   1.724       .  A
C800        C801   1.386       .  A
C801        H807   1.083       .  S
S802        C803   1.725       .  A
C803        C804   1.385       .  A
C804        H808   1.083       .  S
C809       S2495   1.709       .  A
C809        C814   1.388       .  A
C809        C810   1.399       .  A
C810        C811   1.401       .  A
C810       H2501   1.084       .  S
C811        C820   1.365       .  A
C811        C812   1.388   1_556  A
C812        S818   1.707       .  A
C812        C813   1.398       .  A
C813        C814   1.400   1_554  A
C813        H822   1.084       .  S
C814        C817   1.364       .  A
S815        C816   1.720   1_655  A
S815       C2489   1.711       .  A
C816       C2497   1.383       .  A
C817       C2496   1.383       .  A
C817        H823   1.084   1_556  S
S818        C819   1.718       .  A
C819        C820   1.383   1_554  A
C820        H824   1.084       .  S
H821       C2490   1.084       .  S
C825        S831   1.704       .  A
C825        C830   1.388       .  A
C825        C826   1.401       .  A
C826        C827   1.401       .  A
C826        H837   1.084   1_554  S
C827        C836   1.370   1_554  A
C827        C828   1.387       .  A
C828        S834   1.711       .  A
C828        C829   1.404       .  A
C829        C830   1.405       .  A
C829        H838   1.084       .  S
C830        C833   1.375       .  A
S831        C832   1.722       .  A
C832        C833   1.386       .  A
C833        H839   1.083       .  S
S834        C835   1.723   1_554  A
C835        C836   1.387       .  A
C836        H840   1.084       .  S
O841       Cr859   1.953       .  S
O841        C849   1.254       .  A
O842       Cr859   2.038   1_554  S
O842        C843   1.274       .  A
C843        O844   1.261   1_554  A
C843       C1592   1.481       .  S
O844       Cr860   1.971       .  S
O845       Cr860   2.002       .  S
O845        C846   1.262       .  A
C846        O847   1.256       .  A
C846       C3304   1.462   1_455  S
O847       Cr861   1.971       .  S
O848       Cr861   2.005       .  S
O848        C849   1.262       .  A
C849       C1656   1.459       .  S
O850       Cr859   2.019       .  S
O850        C858   1.270       .  A
O851       Cr859   1.966       .  S
O851        C852   1.253       .  A
C852        O853   1.263       .  A
C852       C1675   1.472       .  S
O853       Cr860   2.017       .  S
O854       Cr860   1.990       .  S
O854        C855   1.266       .  A
C855        O856   1.270       .  A
C855       C1611   1.471       .  S
O856       Cr861   2.013       .  S
O857       Cr861   1.955       .  S
O857        C858   1.257       .  A
C858       C1640   1.467       .  S
Cr859       O862   1.769       .  S
Cr860       O862   1.771       .  S
Cr861       O862   1.770       .  S
O863       Cr881   1.959       .  S
O863        C871   1.254       .  A
O864       Cr881   2.019       .  S
O864        C865   1.268       .  A
C865        O866   1.260       .  A
C865       C1531   1.462       .  S
O866       Cr882   1.972       .  S
O867       Cr882   2.023       .  S
O867        C868   1.266       .  A
C868        O869   1.253       .  A
O869       Cr883   1.965       .  S
O870       Cr883   2.024       .  S
O870        C871   1.267       .  A
C871       C1544   1.462   1_565  S
O872       Cr881   2.022       .  S
O872        C880   1.269       .  A
O873       Cr881   1.968       .  S
O873        C874   1.258       .  A
C874        O875   1.269       .  A
C874       C1563   1.475       .  S
O875       Cr882   2.027       .  S
O876       Cr882   1.967       .  S
O876        C877   1.261       .  A
C877        O878   1.274       .  A
C877       C1576   1.469       .  S
O878       Cr883   2.031       .  S
O879       Cr883   1.948       .  S
O879        C880   1.254       .  A
C880       C1643   1.466       .  S
Cr881       O884   1.762       .  S
Cr882       O884   1.765       .  S
Cr883       O884   1.764       .  S
O885       Cr903   1.956       .  S
O885        C893   1.254       .  A
O886       Cr903   2.028       .  S
O886        C887   1.273       .  A
C887        O888   1.263       .  A
C887       C1432   1.479       .  S
O888       Cr904   1.973       .  S
O889       Cr904   2.017       .  S
O889        C890   1.265       .  A
C890        O891   1.255       .  A
C890       C1464   1.460       .  S
O891       Cr905   1.972       .  S
O892       Cr905   2.015       .  S
O892        C893   1.265       .  A
C893       C1499   1.461       .  S
O894       Cr903   2.020       .  S
O894        C902   1.269       .  A
O895       Cr903   1.959       .  S
O895        C896   1.253       .  A
C896        O897   1.263       .  A
C896       C1512   1.468       .  S
O897       Cr904   2.015       .  S
O898       Cr904   1.983       .  S
O898        C899   1.263       .  A
C899        O900   1.272       .  A
C899       C1451   1.476       .  S
O900       Cr905   2.026       .  S
O901       Cr905   1.959       .  S
O901        C902   1.258       .  A
C902       C1480   1.473       .  S
Cr903       O906   1.769       .  S
Cr904       O906   1.773       .  S
Cr905       O906   1.766       .  S
O907       Cr925   1.991       .  S
O907        C915   1.259       .  A
O908       Cr925   1.981       .  S
O908        C909   1.266       .  A
C909        O910   1.273       .  A
C909       C1368   1.479       .  S
O910       Cr926   2.019       .  S
O911       Cr926   1.987       .  S
O911        C912   1.261       .  A
C912        O913   1.261       .  A
C912       C3147   1.476   1_455  S
O913       Cr927   1.991       .  S
O914       Cr927   1.996       .  S
O914        C915   1.261       .  A
C915       C1387   1.474       .  S
O916       Cr925   1.984       .  S
O916        C924   1.264       .  A
O917       Cr925   1.991       .  S
O917        C918   1.256       .  A
C918        O919   1.256       .  A
C918       C1403   1.475       .  S
O919       Cr926   1.990       .  S
O920       Cr926   2.002       .  S
O920        C921   1.266       .  A
C921        O922   1.261       .  A
C921       C1416   1.470       .  S
O922       Cr927   1.977       .  S
O923       Cr927   2.005       .  S
O923        C924   1.267       .  A
C924       C1483   1.472       .  S
Cr925       O928   1.781       .  S
Cr926       O928   1.778       .  S
Cr927       O928   1.779       .  S
O929       Cr947   1.991       .  S
O929        C937   1.257       .  A
O930       Cr947   1.984       .  S
O930        C931   1.266       .  A
C931        O932   1.271       .  A
C931       C1448   1.474       .  S
O932       Cr948   2.012       .  S
O933       Cr948   1.979       .  S
O933        C934   1.258       .  A
C934        O935   1.258       .  A
O935       Cr949   1.975       .  S
O936       Cr949   2.003       .  S
O936        C937   1.260       .  A
C937       C1400   1.478       .  S
O938       Cr947   1.984       .  S
O938        C946   1.266       .  A
O939       Cr947   1.991       .  S
O939        C940   1.256       .  A
C940        O941   1.254       .  A
C940       C1384   1.469       .  S
O941       Cr948   1.981       .  S
O942       Cr948   1.999       .  S
O942        C943   1.265       .  A
C943        O944   1.264       .  A
C943       C1595   1.479       .  S
O944       Cr949   1.992       .  S
O945       Cr949   1.999       .  S
O945        C946   1.266       .  A
C946       C1352   1.468       .  S
Cr947       O950   1.786       .  S
Cr948       O950   1.781       .  S
Cr949       O950   1.780       .  S
O951       Cr969   1.966       .  S
O951        C959   1.252       .  A
O952       Cr969   2.022       .  S
O952        C953   1.271       .  A
C953        O954   1.260       .  A
C953       C1579   1.473   1_554  S
O954       Cr970   1.963       .  S
O955       Cr970   2.019       .  S
O955        C956   1.268       .  A
C956        O957   1.256       .  A
C956       C1339   1.460       .  S
O957       Cr971   1.966       .  S
O958       Cr971   2.020       .  S
O958        C959   1.263       .  A
C959       C1672   1.464       .  S
O960       Cr969   2.042       .  S
O960        C968   1.275       .  A
O961       Cr969   1.960       .  S
O961        C962   1.255       .  A
C962        O963   1.263       .  A
C962       C1659   1.459       .  S
O963       Cr970   2.005       .  S
O964       Cr970   1.974       .  S
O964        C965   1.258       .  A
C965        O966   1.270       .  A
C965       C1371   1.472       .  S
O966       Cr971   2.033       .  S
O967       Cr971   1.937       .  S
O967        C968   1.256       .  A
C968       C1355   1.474       .  S
Cr969       O972   1.770       .  S
Cr970       O972   1.766       .  S
Cr971       O972   1.767       .  S
O973       Cr991   1.963       .  S
O973        C981   1.254       .  A
O974       Cr991   2.024       .  S
O974        C975   1.271       .  A
C975        O976   1.263       .  A
C975       C1608   1.476       .  S
O976       Cr992   1.971       .  S
O977       Cr992   2.029       .  S
O977        C978   1.268       .  A
C978        O979   1.256       .  A
C978       C1307   1.471       .  S
O979       Cr993   1.973       .  S
O980       Cr993   2.026       .  S
O980        C981   1.267       .  A
C981       C1560   1.465       .  S
O982       Cr991   2.026       .  S
O982        C990   1.270       .  A
O983       Cr991   1.971       .  S
O983        C984   1.256       .  A
C984        O985   1.266       .  A
C984       C1547   1.472       .  S
O985       Cr992   2.022       .  S
O986       Cr992   1.980       .  S
O986        C987   1.262       .  A
C987        O988   1.272       .  A
C987       C1288   1.477       .  S
O988       Cr993   2.028       .  S
O989       Cr993   1.955       .  S
O989        C990   1.256       .  A
C990       C1320   1.474       .  S
Cr991       O994   1.766       .  S
Cr992       O994   1.768       .  S
Cr993       O994   1.766       .  S
O995      Cr1013   1.998       .  S
O995       C1003   1.264       .  A
O996      Cr1013   1.969       .  S
O996        C997   1.262       .  A
C997        O998   1.274       .  A
C997       C1240   1.475       .  S
O998      Cr1014   2.028       .  S
O999      Cr1014   1.984       .  S
O999       C1000   1.261       .  A
C1000      O1001   1.264       .  A
C1000      C2984   1.476       .  S
O1001     Cr1015   2.002       .  S
O1002     Cr1015   1.983       .  S
O1002      C1003   1.261       .  A
C1003      C1256   1.465       .  S
O1004     Cr1013   1.982       .  S
O1004      C1012   1.261       .  A
O1005     Cr1013   1.996       .  S
O1005      C1006   1.257       .  A
C1006      O1007   1.256       .  A
C1006      C1272   1.469       .  S
O1007     Cr1014   1.983       .  S
O1008     Cr1014   2.010       .  S
O1008      C1009   1.268       .  A
C1009      O1010   1.260       .  A
C1009      C1528   1.471       .  S
O1010     Cr1015   1.973       .  S
O1011     Cr1015   2.009       .  S
O1011      C1012   1.266       .  A
C1012      C1323   1.473       .  S
Cr1013     O1016   1.779       .  S
Cr1014     O1016   1.774       .  S
Cr1015     O1016   1.772       .  S
O1017     Cr1035   1.954       .  S
O1017      C1025   1.252       .  A
O1018     Cr1035   2.012       .  S
O1018      C1019   1.266       .  A
C1019      O1020   1.262       .  A
C1019      C1160   1.475       .  S
O1020     Cr1036   1.983       .  S
O1021     Cr1036   2.010       .  S
O1021      C1022   1.266       .  A
C1022      O1023   1.256       .  A
C1022      C2856   1.466       .  S
O1023     Cr1037   1.975       .  S
O1024     Cr1037   2.016       .  S
O1024      C1025   1.263       .  A
C1025      C1211   1.456       .  S
O1026     Cr1035   2.022       .  S
O1026      C1034   1.270       .  A
O1027     Cr1035   1.961       .  S
O1027      C1028   1.256       .  A
C1028      O1029   1.266       .  A
C1028      C1224   1.459       .  S
O1029     Cr1036   2.012       .  S
O1030     Cr1036   1.983       .  S
O1030      C1031   1.263       .  A
C1031      O1032   1.270       .  A
C1031      C1435   1.474       .  S
O1032     Cr1037   2.022       .  S
O1033     Cr1037   1.953       .  S
O1033      C1034   1.257       .  A
C1034      C1192   1.468       .  S
Cr1035     O1038   1.768       .  S
Cr1036     O1038   1.765       .  S
Cr1037     O1038   1.771       .  S
O1039     Cr1057   1.964       .  S
O1039      C1047   1.254       .  A
O1040     Cr1057   2.014       .  S
O1040      C1041   1.266       .  A
C1041      O1042   1.261       .  A
C1041      C1419   1.471       .  S
O1042     Cr1058   1.982       .  S
O1043     Cr1058   2.003       .  S
O1043      C1044   1.264       .  A
C1044      O1045   1.260       .  A
O1045     Cr1059   1.978       .  S
O1046     Cr1059   2.019       .  S
O1046      C1047   1.264       .  A
C1047      C1515   1.462       .  S
O1048     Cr1057   2.019       .  S
O1048      C1056   1.269       .  A
O1049     Cr1057   1.963       .  S
O1049      C1050   1.257       .  A
C1050      O1051   1.266       .  A
C1050      C1496   1.467       .  S
O1051     Cr1058   2.014       .  S
O1052     Cr1058   1.988       .  S
O1052      C1053   1.264       .  A
C1053      O1054   1.268       .  A
C1053      C1144   1.472       .  S
O1054     Cr1059   2.010       .  S
O1055     Cr1059   1.956       .  S
O1055      C1056   1.257       .  A
C1056      C1195   1.468       .  S
Cr1057     O1060   1.770       .  S
Cr1058     O1060   1.767       .  S
Cr1059     O1060   1.771       .  S
O1061     Cr1079   1.956       .  S
O1061      C1069   1.254       .  A
O1062     Cr1079   2.022       .  S
O1062      C1063   1.269       .  A
C1063      O1064   1.261       .  A
C1063      C1291   1.474       .  S
O1064     Cr1080   1.968       .  S
O1065     Cr1080   2.003       .  S
O1065      C1066   1.263       .  A
C1066      O1067   1.257       .  A
O1067     Cr1081   1.969       .  S
O1068     Cr1081   2.012       .  S
O1068      C1069   1.264       .  A
C1069      C1275   1.465       .  S
O1070     Cr1079   2.008       .  S
O1070      C1078   1.267       .  A
O1071     Cr1079   1.959       .  S
O1071      C1072   1.253       .  A
C1072      O1073   1.264       .  A
C1072      C1259   1.467       .  S
O1073     Cr1080   2.013       .  S
O1074     Cr1080   1.986       .  S
O1074      C1075   1.265       .  A
C1075      O1076   1.270       .  A
C1075      C1163   1.475       .  S
O1076     Cr1081   2.016       .  S
O1077     Cr1081   1.954       .  S
O1077      C1078   1.257       .  A
C1078      C1128   1.461       .  S
Cr1079     O1082   1.775       .  S
Cr1080     O1082   1.773       .  S
Cr1081     O1082   1.773       .  S
O1083     Cr1101   1.956       .  S
O1083      C1091   1.257       .  A
O1084     Cr1101   2.022       .  S
O1084      C1085   1.270       .  A
C1085      O1086   1.262       .  A
C1085      C1147   1.473       .  S
O1086     Cr1102   1.970       .  S
O1087     Cr1102   2.016       .  S
O1087      C1088   1.266       .  A
C1088      O1089   1.255       .  A
C1088      C1115   1.467       .  S
O1089     Cr1103   1.968       .  S
O1090     Cr1103   2.017       .  S
O1090      C1091   1.267       .  A
C1091      C1227   1.466       .  S
O1092     Cr1101   2.007       .  S
O1092      C1100   1.265       .  A
O1093     Cr1101   1.965       .  S
O1093      C1094   1.255       .  A
C1094      O1095   1.263       .  A
C1094      C1208   1.466       .  S
O1095     Cr1102   2.016       .  S
O1096     Cr1102   1.977       .  S
O1096      C1097   1.261       .  A
C1097      O1098   1.272       .  A
C1097      C1243   1.474       .  S
O1098     Cr1103   2.032       .  S
O1099     Cr1103   1.959       .  S
O1099      C1100   1.258       .  A
C1100      C1131   1.464       .  S
Cr1101     O1104   1.766       .  S
Cr1102     O1104   1.768       .  S
Cr1103     O1104   1.768       .  S
C1105      S1111   1.701       .  A
C1105      C1110   1.387       .  A
C1105      C1106   1.398       .  A
C1106      C1107   1.399       .  A
C1106      H1117   1.084       .  S
C1107      C1116   1.368       .  A
C1107      C1108   1.387       .  A
C1108      S1114   1.706       .  A
C1108      C1109   1.403       .  A
C1109      C1110   1.403       .  A
C1109      H1118   1.084       .  S
C1110      C1113   1.372       .  A
S1111      C1112   1.722       .  A
C1112      C1113   1.387       .  A
C1113      H1119   1.083       .  S
S1114      C1115   1.724       .  A
C1115      C1116   1.384       .  A
C1116      H1120   1.084       .  S
C1121      S1127   1.704       .  A
C1121      C1126   1.388       .  A
C1121      C1122   1.396       .  A
C1122      C1123   1.398       .  A
C1122      H1133   1.083       .  S
C1123      C1132   1.362       .  A
C1123      C1124   1.387       .  A
C1124      S1130   1.708       .  A
C1124      C1125   1.400       .  A
C1125      C1126   1.402       .  A
C1125      H1134   1.083       .  S
C1126      C1129   1.365       .  A
S1127      C1128   1.718       .  A
C1128      C1129   1.386       .  A
C1129      H1135   1.083       .  S
S1130      C1131   1.722       .  A
C1131      C1132   1.383       .  A
C1132      H1136   1.083       .  S
C1137      S1143   1.701       .  A
C1137      C1142   1.387       .  A
C1137      C1138   1.398       .  A
C1138      C1139   1.398       .  A
C1138      H1149   1.083       .  S
C1139      C1148   1.367       .  A
C1139      C1140   1.386       .  A
C1140      S1146   1.712       .  A
C1140      C1141   1.406       .  A
C1141      C1142   1.407       .  A
C1141      H1150   1.083       .  S
C1142      C1145   1.377       .  A
S1143      C1144   1.721       .  A
C1144      C1145   1.389       .  A
C1145      H1151   1.083       .  S
S1146      C1147   1.726       .  A
C1147      C1148   1.385       .  A
C1148      H1152   1.084       .  S
C1153      S1159   1.709       .  A
C1153      C2838   1.387       .  A
C1153      C1154   1.404       .  A
C1154      C2835   1.404       .  A
C1154      H1165   1.083       .  S
C1155      C2834   1.405       .  A
C1155      C1164   1.376       .  A
C1155      C1156   1.387       .  A
C1156      S1162   1.704       .  A
C1156      C1157   1.401       .  A
C1157      C1158   1.401       .  A
C1157      H1166   1.083       .  S
C1158      C2833   1.387   1_455  A
C1158      C1161   1.371   1_455  A
S1159      C1160   1.725       .  A
C1160      C2841   1.387       .  A
C1161      C2840   1.387       .  A
C1161      H1167   1.083   1_655  S
S1162      C1163   1.724       .  A
C1163      C1164   1.388       .  A
C1164      H1168   1.083       .  S
C1169      S1175   1.709       .  A
C1169      C1174   1.387       .  A
C1169      C1170   1.404       .  A
C1170      C1171   1.404       .  A
C1170      H1181   1.083       .  S
C1171      C1180   1.374       .  A
C1171      C1172   1.387       .  A
C1172      S1178   1.700       .  A
C1172      C1173   1.398       .  A
C1173      C1174   1.399       .  A
C1173      H1182   1.083       .  S
C1174      C1177   1.367       .  A
S1175      C1176   1.725       .  A
C1176      C2702   1.470   1_455  S
C1176      C1177   1.384       .  A
C1177      H2863   1.083   1_455  S
S1178      C1179   1.722       .  A
C1179      C1180   1.388       .  A
C1180      H1184   1.083       .  S
H1183      C2857   1.083       .  S
C1185      S1191   1.710       .  A
C1185      C1190   1.387       .  A
C1185      C1186   1.400       .  A
C1186      C1187   1.403       .  A
C1186      H1197   1.084       .  S
C1187      C1196   1.366       .  A
C1187      C1188   1.387       .  A
C1188      S1194   1.709       .  A
C1188      C1189   1.399       .  A
C1189      C1190   1.402       .  A
C1189      H1198   1.084       .  S
C1190      C1193   1.365       .  A
S1191      C1192   1.721       .  A
C1192      C1193   1.386       .  A
C1193      H1199   1.084       .  S
S1194      C1195   1.720       .  A
C1195      C1196   1.387       .  A
C1196      H1200   1.084       .  S
C1201      S1207   1.710       .  A
C1201      C1206   1.387       .  A
C1201      C1202   1.404       .  A
C1202      C1203   1.405       .  A
C1202      H1213   1.083       .  S
C1203      C1212   1.373   1_455  A
C1203      C1204   1.388       .  A
C1204      S2890   1.700       .  A
C1204      C1205   1.396       .  A
C1205      C1206   1.397       .  A
C1205      H1214   1.083       .  S
C1206      C1209   1.364       .  A
S1207      C1208   1.723       .  A
C1208      C1209   1.383       .  A
C1209      H1215   1.084       .  S
S1210      C2884   1.696       .  A
S1210      C1211   1.717       .  A
C1211      C2892   1.384       .  A
C1212      C2891   1.385       .  A
C1212      H1216   1.083       .  S
C1217      S1223   1.706       .  A
C1217      C1222   1.388       .  A
C1217      C1218   1.397       .  A
C1218      C1219   1.399       .  A
C1218      H1229   1.083       .  S
C1219      C1228   1.363       .  A
C1219      C1220   1.387       .  A
C1220      S1226   1.713       .  A
C1220      C1221   1.403       .  A
C1221      C1222   1.405       .  A
C1221      H1230   1.083       .  S
C1222      C1225   1.369       .  A
S1223      C1224   1.716       .  A
C1224      C1225   1.385       .  A
C1225      H1231   1.083       .  S
S1226      C1227   1.722       .  A
C1227      C1228   1.384       .  A
C1228      H1232   1.083       .  S
C1233      S1239   1.711       .  A
C1233      C2918   1.387       .  A
C1233      C1234   1.407       .  A
C1234      C2915   1.406       .  A
C1234      H1245   1.083       .  S
C1235      C2914   1.404       .  A
C1235      C1244   1.374       .  A
C1235      C1236   1.387       .  A
C1236      S1242   1.710       .  A
C1236      C1237   1.404       .  A
C1237      C1238   1.405       .  A
C1237      H1246   1.083       .  S
C1238      C2913   1.387       .  A
C1238      C1241   1.374   1_455  A
S1239      C1240   1.726       .  A
C1240      C2921   1.385       .  A
C1241      C2920   1.388       .  A
C1241      H1247   1.083       .  S
S1242      C1243   1.724       .  A
C1243      C1244   1.386       .  A
C1244      H1248   1.083       .  S
C1249      S1255   1.710       .  A
C1249      C1254   1.387       .  A
C1249      C1250   1.400       .  A
C1250      C1251   1.403       .  A
C1250      H1261   1.083       .  S
C1251      C1260   1.366       .  A
C1251      C1252   1.387       .  A
C1252      S1258   1.708       .  A
C1252      C2933   1.398       .  A
C1253      C2932   1.398       .  A
C1253      C2934   1.401       .  A
C1253      H1262   1.083       .  S
C1254      C2933   1.401       .  A
C1254      C2937   1.364   1_455  A
S1255      C2936   1.721   1_455  A
C1256      S2935   1.720       .  A
C1256      C1257   1.385       .  A
C1257      C2934   1.363       .  A
C1257      H1263   1.084       .  S
S1258      C1259   1.720       .  A
C1259      C1260   1.387       .  A
C1260      H1264   1.083       .  S
C1265      S1271   1.706       .  A
C1265      C1270   1.387       .  A
C1265      C1266   1.398       .  A
C1266      C1267   1.401       .  A
C1266      H1277   1.084       .  S
C1267      C1268   1.387       .  A
C1268      S1274   1.713       .  A
C1268      C1269   1.402       .  A
C1269      C1270   1.404       .  A
C1269      H1278   1.083       .  S
C1270      C1273   1.370       .  A
S1271      C1272   1.721       .  A
C1272      C1273   1.387       .  A
C1273      H1279   1.083       .  S
C1275      C1276   1.385       .  A
C1276      H1280   1.084       .  S
C1281      S1287   1.712       .  A
C1281      C1286   1.387       .  A
C1281      C1282   1.408       .  A
C1282      C1283   1.408       .  A
C1282      H1293   1.083       .  S
C1283      C1284   1.387       .  A
C1284      C1285   1.401       .  A
C1285      C1286   1.401       .  A
C1285      H1294   1.083       .  S
C1286      C1289   1.372       .  A
S1287      C1288   1.727       .  A
C1288      C1289   1.386       .  A
C1289      H1295   1.083       .  S
S1290      C1291   1.721   1_545  A
C1291      C1292   1.391       .  A
C1292      H1296   1.083       .  S
C1297      S1303   1.711       .  A
C1297      C1302   1.387       .  A
C1297      C1298   1.404       .  A
C1298      C1299   1.405       .  A
C1298      H1309   1.083       .  S
C1299      C1308   1.373       .  A
C1299      C1300   1.387       .  A
C1300      S1306   1.707       .  A
C1300      C1301   1.401       .  A
C1301      C1302   1.402       .  A
C1301      H1310   1.083       .  S
C1302      C1305   1.370       .  A
S1303      C1304   1.724       .  A
C1304      C2680   1.471   1_455  S
C1304      C1305   1.386       .  A
C1305      H1311   1.083       .  S
S1306      C1307   1.722       .  A
C1307      C1308   1.388       .  A
C1308      H1312   1.083       .  S
C1313      S1319   1.714       .  A
C1313      C1318   1.386       .  A
C1313      C1314   1.403       .  A
C1314      C1315   1.405       .  A
C1314      H1325   1.084       .  S
C1315      C1324   1.370       .  A
C1315      C1316   1.387       .  A
C1316      S1322   1.708       .  A
C1316      C1317   1.399       .  A
C1317      C1318   1.402       .  A
C1317      H1326   1.084       .  S
C1318      C1321   1.366       .  A
S1319      C1320   1.723       .  A
C1320      C1321   1.388       .  A
C1321      H1327   1.084       .  S
S1322      C1323   1.722       .  A
C1323      C1324   1.389       .  A
C1324      H1328   1.084       .  S
C1329      S1335   1.703       .  A
C1329      C1334   1.387       .  A
C1329      C1330   1.397       .  A
C1330      C1331   1.399       .  A
C1330      H1341   1.084       .  S
C1331      C1340   1.365       .  A
C1331      C1332   1.388       .  A
C1332      S1338   1.707       .  A
C1332      C1333   1.401       .  A
C1333      C1334   1.402       .  A
C1333      H1342   1.083       .  S
C1334      C1337   1.368       .  A
S1335      C1336   1.719       .  A
C1336      C1337   1.386       .  A
C1337      H1343   1.084       .  S
S1338      C1339   1.722       .  A
C1339      C1340   1.382       .  A
C1340      H1344   1.084       .  S
C1345      S1351   1.707       .  A
C1345      C1350   1.387       .  A
C1345      C1346   1.394       .  A
C1346      C1347   1.399       .  A
C1346      H1357   1.084       .  S
C1347      C1356   1.358       .  A
C1347      C1348   1.385       .  A
C1348      S1354   1.720       .  A
C1348      C1349   1.405       .  A
C1349      C1350   1.409       .  A
C1349      H1358   1.083       .  S
C1350      C1353   1.370       .  A
S1351      C1352   1.717       .  A
C1352      C1353   1.390       .  A
C1353      H1359   1.083       .  S
S1354      C1355   1.725       .  A
C1355      C1356   1.386       .  A
C1356      H1360   1.084       .  S
C1361      S3047   1.709       .  A
C1361      C1366   1.387       .  A
C1361      C1362   1.404       .  A
C1362      C1363   1.404       .  A
C1362      H1373   1.083       .  S
C1363      C1372   1.375       .  A
C1363      C1364   1.387       .  A
C1364      S1370   1.709       .  A
C1364      C1365   1.404       .  A
C1365      C1366   1.404       .  A
C1365      H1374   1.083       .  S
C1366      C1369   1.374       .  A
S1367      C3041   1.710       .  A
S1367      C1368   1.725   1_655  A
C1368      C3049   1.389       .  A
C1369      C3048   1.387       .  A
C1369      H1375   1.083       .  S
S1370      C1371   1.723       .  A
C1371      C1372   1.387       .  A
C1372      H1376   1.083       .  S
C1377      S1383   1.706       .  A
C1377      C1382   1.387       .  A
C1377      C1378   1.397       .  A
C1378      C1379   1.399       .  A
C1378      H1389   1.084       .  S
C1379      C3068   1.362       .  A
C1379      C1380   1.386       .  A
C1380      S1386   1.714       .  A
C1380      C1381   1.403       .  A
C1381      C1382   1.405       .  A
C1381      H1390   1.083       .  S
C1382      C1385   1.369       .  A
S1383      C1384   1.720       .  A
C1384      C1385   1.388       .  A
C1385      H1391   1.083       .  S
S1386      C3067   1.723       .  A
C1387      S3066   1.723   1_455  A
C1387      C1388   1.388       .  A
C1388      C3059   1.365   1_455  A
C1388      H1392   1.084       .  S
C1393      S1399   1.713       .  A
C1393      C1398   1.386       .  A
C1393      C1394   1.403       .  A
C1394      C1395   1.405       .  A
C1394      H1405   1.083       .  S
C1395      C1404   1.370       .  A
C1395      C1396   1.386       .  A
C1396      S1402   1.711       .  A
C1396      C1397   1.401       .  A
C1397      C1398   1.403       .  A
C1400      C1401   1.389       .  A
C1401      H1407   1.083       .  S
S1402      C1403   1.723       .  A
C1403      C1404   1.389       .  A
C1404      H1408   1.083       .  S
C1409      S1415   1.706       .  A
C1409      C1414   1.387       .  A
C1409      C1410   1.400       .  A
C1410      C1411   1.401       .  A
C1410      H1421   1.083       .  S
C1411      C1412   1.387       .  A
C1412      C1413   1.404       .  A
C1413      C1414   1.405       .  A
C1413      H1422   1.083   1_565  S
C1414      C1417   1.373       .  A
S1415      C1416   1.721       .  A
C1416      C1417   1.388       .  A
C1417      H1423   1.083       .  S
S1418      C1419   1.723       .  A
C1419      C1420   1.386       .  A
C1420      H1424   1.083       .  S
C1425      S1431   1.713       .  A
C1425      C1430   1.386       .  A
C1425      C1426   1.406       .  A
C1426      C1427   1.406       .  A
C1426      H1437   1.083       .  S
C1427      C1436   1.375       .  A
C1427      C1428   1.387       .  A
C1428      S1434   1.707       .  A
C1428      C1429   1.401       .  A
C1429      C1430   1.402       .  A
C1429      H1438   1.083       .  S
C1430      C1433   1.371       .  A
S1431      C1432   1.726       .  A
C1432      C1433   1.388       .  A
C1433      H1439   1.083       .  S
S1434      C1435   1.722       .  A
C1435      C1436   1.389       .  A
C1436      H1440   1.083       .  S
C1441      S1447   1.707       .  A
C1442      C1443   1.401       .  A
C1443      C1452   1.371       .  A
C1443      C1444   1.387       .  A
C1444      S1450   1.713       .  A
C1444      C1445   1.407       .  A
C1445      C1446   1.407       .  A
C1445      H1454   1.083   1_565  S
C1446      C1449   1.378   1_565  A
S1447      C1448   1.723       .  A
C1449      H1455   1.083       .  S
S1450      C1451   1.726       .  A
C1451      C1452   1.386       .  A
C1452      H1456   1.084       .  S
C1457      S1463   1.707       .  A
C1457      C1462   1.388       .  A
C1457      C1458   1.399       .  A
C1458      C1459   1.401       .  A
C1458      H1469   1.083       .  S
C1459      C1468   1.366       .  A
C1459      C1460   1.387       .  A
C1460      S1466   1.709       .  A
C1460      C1461   1.401       .  A
C1461      C1462   1.402       .  A
C1461      H1470   1.083       .  S
C1462      C1465   1.368       .  A
S1463      C1464   1.719       .  A
C1464      C1465   1.383       .  A
C1465      H1471   1.084       .  S
S1466      C1467   1.722       .  A
C1467      C2592   1.469       .  S
C1467      C1468   1.386       .  A
C1468      H1472   1.083       .  S
C1473      S1479   1.714       .  A
C1473      C1478   1.386       .  A
C1473      C1474   1.403       .  A
C1474      C1475   1.405       .  A
C1474      H1485   1.083       .  S
C1475      C1484   1.369       .  A
C1475      C1476   1.387       .  A
C1476      S1482   1.709       .  A
C1476      C1477   1.399       .  A
C1477      C1478   1.401       .  A
C1477      H1486   1.084       .  S
C1478      C1481   1.365       .  A
S1479      C1480   1.724       .  A
C1480      C1481   1.387       .  A
C1481      H1487   1.084       .  S
S1482      C1483   1.721       .  A
C1483      C1484   1.389       .  A
C1484      H1488   1.083       .  S
C1489      S1495   1.708       .  A
C1489      C1494   1.387       .  A
C1489      C1490   1.400       .  A
C1490      C1491   1.402       .  A
C1490      H1501   1.083       .  S
C1491      C1500   1.366       .  A
C1491      C1492   1.387       .  A
C1492      S1498   1.711       .  A
C1492      C1493   1.401       .  A
C1493      C1494   1.403       .  A
C1493      H1502   1.083       .  S
C1494      C1497   1.368       .  A
S1495      C1496   1.720       .  A
C1496      C1497   1.386       .  A
C1497      H1503   1.083       .  S
S1498      C1499   1.719       .  A
C1499      C1500   1.384       .  A
C1500      H1504   1.083       .  S
C1505      S1511   1.711       .  A
C1505      C1510   1.387       .  A
C1505      C1506   1.402       .  A
C1506      C1507   1.404       .  A
C1507      C1508   1.388       .  A
C1508      S1514   1.703       .  A
C1508      C1509   1.396       .  A
C1509      C1510   1.398       .  A
C1509      H1518   1.084       .  S
C1510      C1513   1.362       .  A
S1511      C1512   1.723       .  A
C1512      C1513   1.384       .  A
C1513      H1519   1.084       .  S
C1515      C1516   1.386       .  A
C1516      H1520   1.083       .  S
C1521      S1527   1.706       .  A
C1521      C1526   1.387       .  A
C1522      C1523   1.400       .  A
C1522      H1533   1.084       .  S
C1523      C1532   1.367       .  A
C1524      S1530   1.708       .  A
C1524      C1525   1.401       .  A
C1525      C1526   1.402       .  A
C1525      H1534   1.084       .  S
C1526      C1529   1.370       .  A
S1527      C1528   1.724       .  A
C1528      C1529   1.386       .  A
C1529      H1535   1.083       .  S
C1531      C1532   1.383   1_565  A
C1532      H1536   1.084       .  S
C1537      S1543   1.703       .  A
C1537      C1542   1.388       .  A
C1537      C1538   1.400       .  A
C1538      C1539   1.400       .  A
C1538      H1549   1.084       .  S
C1539      C1548   1.369       .  A
C1539      C1540   1.387       .  A
C1540      S1546   1.711       .  A
C1540      C1541   1.405       .  A
C1541      C1542   1.405       .  A
C1541      H1550   1.083       .  S
C1544      C1545   1.385       .  A
C1545      H1551   1.083   1_545  S
S1546      C1547   1.724       .  A
C1547      C1548   1.386       .  A
C1548      H1552   1.084       .  S
C1553      S1559   1.706       .  A
C1553      C1558   1.387       .  A
C1553      C1554   1.400       .  A
C1554      C1555   1.401       .  A
C1554      H1565   1.083       .  S
C1555      C1564   1.369       .  A
C1555      C1556   1.386       .  A
C1556      S1562   1.712       .  A
C1556      C1557   1.404       .  A
C1557      C1558   1.405       .  A
C1557      H1566   1.083       .  S
C1558      C1561   1.374       .  A
S1559      C1560   1.720       .  A
C1560      C1561   1.386       .  A
C1561      H1567   1.083       .  S
S1562      C1563   1.724       .  A
C1563      C1564   1.387       .  A
C1564      H1568   1.083       .  S
C1569      S1575   1.706       .  A
C1569      C1574   1.387       .  A
C1569      C1570   1.403       .  A
C1570      C1571   1.403       .  A
C1570      H1581   1.083       .  S
C1571      C1580   1.374       .  A
C1571      C1572   1.387       .  A
C1572      S1578   1.702       .  A
C1572      C1573   1.400       .  A
C1573      C1574   1.400       .  A
C1573      H1582   1.083       .  S
C1574      C1577   1.371       .  A
S1575      C1576   1.724       .  A
C1576      C1577   1.384       .  A
C1577      H1583   1.083       .  S
S1578      C1579   1.724       .  A
C1579      C1580   1.387       .  A
C1580      H1584   1.083       .  S
C1585      S3271   1.719       .  A
C1585      C1590   1.386       .  A
C1585      C1586   1.407       .  A
C1586      C1587   1.409       .  A
C1586      H1597   1.083       .  S
C1587      C1596   1.377       .  A
C1587      C1588   1.387       .  A
C1588      S1594   1.711       .  A
C1588      C1589   1.402       .  A
C1589      C1590   1.404       .  A
C1589      H1598   1.083       .  S
C1590      C3273   1.371       .  A
S1591      C3265   1.718   1_455  A
S1591      C1592   1.724       .  A
C1592      C1593   1.391   1_455  A
C1593      C3270   1.373       .  A
C1593      H1599   1.084       .  S
S1594      C1595   1.722       .  A
C1595      C1596   1.391       .  A
C1596      H1600   1.083       .  S
C1601      S1607   1.713       .  A
C1601      C1606   1.386       .  A
C1601      C1602   1.407       .  A
C1602      C1603   1.407       .  A
C1602      H1613   1.082       .  S
C1603      C1612   1.377       .  A
C1603      C1604   1.387       .  A
C1604      S1610   1.701       .  A
C1604      C1605   1.398       .  A
C1605      C1606   1.398       .  A
C1605      H1614   1.083       .  S
C1606      C1609   1.367       .  A
S1607      C1608   1.727       .  A
C1608      C1609   1.385       .  A
C1609      H1615   1.083       .  S
S1610      C1611   1.721       .  A
C1611      C1612   1.389       .  A
C1612      H1616   1.083       .  S
C1617      S1623   1.706       .  A
C1617      C1622   1.387       .  A
C1617      C1618   1.402       .  A
C1618      C1619   1.402       .  A
C1618      H1629   1.083       .  S
C1619      C1628   1.372       .  A
C1619      C1620   1.387       .  A
C1620      S1626   1.704       .  A
C1620      C1621   1.401       .  A
C1621      C1622   1.401       .  A
C1621      H1630   1.083       .  S
C1622      C1625   1.370       .  A
S1623      C1624   1.723       .  A
C1624      C2526   1.470       .  S
C1624      C1625   1.386       .  A
C1625      H1631   1.083       .  S
S1626      C1627   1.724       .  A
C1627      C1628   1.386       .  A
C1633      S1639   1.702       .  A
C1633      C1638   1.388       .  A
C1633      C1634   1.401       .  A
C1634      C1635   1.401       .  A
C1634      H1645   1.083       .  S
C1635      C1644   1.372       .  A
C1635      C1636   1.388       .  A
C1636      S1642   1.700       .  A
C1636      C1637   1.400       .  A
C1637      C1638   1.399       .  A
C1637      H1646   1.083       .  S
C1638      C1641   1.371       .  A
S1639      C1640   1.724       .  A
C1640      C1641   1.384       .  A
C1641      H1647   1.083       .  S
S1642      C1643   1.723       .  A
C1643      C1644   1.384       .  A
C1644      H1648   1.083       .  S
C1649      S3335   1.711       .  A
C1649      C1654   1.387       .  A
C1649      C1650   1.400       .  A
C1650      C1651   1.403       .  A
C1650      H3341   1.084       .  S
C1651      C1660   1.367       .  A
C1651      C1652   1.388   1_556  A
C1652      S1658   1.706       .  A
C1652      C1653   1.397       .  A
C1653      C1654   1.400   1_554  A
C1653      H1662   1.084       .  S
C1654      C1657   1.363       .  A
S1655      C3329   1.710       .  A
S1655      C1656   1.720   1_655  A
C1656      C3337   1.382       .  A
C1657      C3336   1.383       .  A
C1657      H1663   1.084       .  S
S1658      C1659   1.717       .  A
C1659      C1660   1.384   1_554  A
C1660      H1664   1.084       .  S
H1661      C3330   1.084       .  S
C1665      S1671   1.704       .  A
C1665      C1670   1.388       .  A
C1665      C1666   1.399       .  A
C1666      C1667   1.400       .  A
C1666      H1677   1.084   1_554  S
C1667      C1676   1.368   1_554  A
C1667      C1668   1.387       .  A
C1668      S1674   1.711       .  A
C1668      C1669   1.404       .  A
C1669      C1670   1.405       .  A
C1669      H1678   1.084       .  S
C1670      C1673   1.373       .  A
S1671      C1672   1.720       .  A
C1672      C1673   1.385       .  A
C1673      H1679   1.083       .  S
S1674      C1675   1.723   1_554  A
C1675      C1676   1.386       .  A
C1676      H1680   1.084       .  S
O1681     Cr1699   1.957       .  S
O1681      C1689   1.254       .  A
O1682     Cr1699   2.033   1_554  S
O1682      C1683   1.273       .  A
C1683      O1684   1.262   1_554  A
C1683      C2432   1.478       .  S
O1684     Cr1700   1.969       .  S
O1685     Cr1700   2.007       .  S
O1685      C1686   1.263       .  A
C1686      O1687   1.256       .  A
O1687     Cr1701   1.972       .  S
O1688     Cr1701   2.003       .  S
O1688      C1689   1.263       .  A
C1689      C2496   1.461       .  S
O1690     Cr1699   2.018       .  S
O1690      C1698   1.269       .  A
O1691     Cr1699   1.963       .  S
O1691      C1692   1.252       .  A
C1692      O1693   1.262       .  A
C1692      C2515   1.469   1_556  S
O1693     Cr1700   2.017       .  S
O1694     Cr1700   1.996       .  S
O1694      C1695   1.267       .  A
C1695      O1696   1.270       .  A
C1695      C2451   1.477       .  S
O1696     Cr1701   2.011       .  S
O1697     Cr1701   1.956       .  S
O1697      C1698   1.257       .  A
C1698      C2480   1.470       .  S
Cr1699     O1702   1.773       .  S
Cr1700     O1702   1.775       .  S
Cr1701     O1702   1.767       .  S
O1703     Cr1721   1.967       .  S
O1703      C1711   1.254       .  A
O1704     Cr1721   2.016       .  S
O1704      C1705   1.269       .  A
C1705      O1706   1.259       .  A
C1705      C2371   1.458       .  S
O1706     Cr1722   1.964       .  S
O1707     Cr1722   2.019       .  S
O1707      C1708   1.267       .  A
C1708      O1709   1.254       .  A
C1708      C3307   1.463       .  S
O1709     Cr1723   1.963       .  S
O1710     Cr1723   2.026       .  S
O1710      C1711   1.265       .  A
C1711      C2384   1.473       .  S
O1712     Cr1721   2.030       .  S
O1712      C1720   1.272       .  A
O1713     Cr1721   1.970       .  S
O1713      C1714   1.257       .  A
C1714      O1715   1.264       .  A
C1714      C2403   1.471       .  S
O1715     Cr1722   2.011       .  S
O1716     Cr1722   1.967       .  S
O1716      C1717   1.258       .  A
C1717      O1718   1.272       .  A
C1717      C2416   1.471       .  S
O1718     Cr1723   2.031       .  S
O1719     Cr1723   1.944       .  S
O1719      C1720   1.254       .  A
C1720      C2483   1.467       .  S
Cr1721     O1724   1.764       .  S
Cr1722     O1724   1.771       .  S
Cr1723     O1724   1.769       .  S
O1725     Cr1743   1.953       .  S
O1725      C1733   1.254       .  A
O1726     Cr1743   2.030       .  S
O1726      C1727   1.274       .  A
C1727      O1728   1.265       .  A
C1727      C2272   1.484       .  S
O1728     Cr1744   1.978       .  S
O1729     Cr1744   2.019       .  S
O1729      C1730   1.267       .  A
C1730      O1731   1.259       .  A
C1730      C2304   1.471       .  S
O1731     Cr1745   1.976       .  S
O1732     Cr1745   2.020       .  S
O1732      C1733   1.266       .  A
C1733      C2339   1.464       .  S
O1734     Cr1743   2.019       .  S
O1734      C1742   1.268       .  A
O1735     Cr1743   1.955       .  S
O1735      C1736   1.251       .  A
C1736      O1737   1.263       .  A
C1736      C2352   1.469       .  S
O1737     Cr1744   2.022       .  S
O1738     Cr1744   1.994       .  S
O1738      C1739   1.265       .  A
C1739      O1740   1.270       .  A
C1739      C2291   1.480       .  S
O1740     Cr1745   2.022       .  S
O1741     Cr1745   1.960       .  S
O1741      C1742   1.257       .  A
C1742      C2320   1.472       .  S
Cr1743     O1746   1.768       .  S
Cr1744     O1746   1.773       .  S
Cr1745     O1746   1.769       .  S
O1747     Cr1765   1.997       .  S
O1747      C1755   1.260       .  A
O1748     Cr1765   1.984       .  S
O1748      C1749   1.266       .  A
C1749      O1750   1.272       .  A
C1749      C2208   1.478       .  S
O1750     Cr1766   2.018       .  S
O1751     Cr1766   1.987       .  S
O1751      C1752   1.261       .  A
C1752      O1753   1.258       .  A
O1753     Cr1767   1.982       .  S
O1754     Cr1767   1.988       .  S
O1754      C1755   1.259       .  A
C1755      C2227   1.471       .  S
O1756     Cr1765   1.990       .  S
O1756      C1764   1.264       .  A
O1757     Cr1765   1.991       .  S
O1757      C1758   1.256       .  A
C1758      O1759   1.257       .  A
C1758      C2243   1.477       .  S
O1759     Cr1766   1.992       .  S
O1760     Cr1766   1.998       .  S
O1760      C1761   1.265       .  A
C1761      O1762   1.263       .  A
C1761      C2256   1.472       .  S
O1762     Cr1767   1.983       .  S
O1763     Cr1767   1.999       .  S
O1763      C1764   1.265       .  A
C1764      C2323   1.472       .  S
Cr1765     O1768   1.786       .  S
Cr1766     O1768   1.779       .  S
Cr1767     O1768   1.780       .  S
O1769     Cr1787   1.991       .  S
O1769      C1777   1.261       .  A
O1770     Cr1787   1.978       .  S
O1770      C1771   1.263       .  A
C1771      O1772   1.270       .  A
C1771      C2288   1.473       .  S
O1772     Cr1788   2.013       .  S
O1773     Cr1788   1.968       .  S
O1773      C1774   1.257       .  A
C1774      O1775   1.262       .  A
C1774      C3016   1.460   1_545  S
O1775     Cr1789   1.992       .  S
O1776     Cr1789   2.002       .  S
O1776      C1777   1.264       .  A
C1777      C2240   1.477       .  S
O1778     Cr1787   1.980       .  S
O1778      C1786   1.263       .  A
O1779     Cr1787   1.992       .  S
O1779      C1780   1.259       .  A
C1780      O1781   1.258       .  A
C1780      C2224   1.471       .  S
O1781     Cr1788   1.986       .  S
O1782     Cr1788   2.011       .  S
O1782      C1783   1.267       .  A
C1783      O1784   1.264       .  A
C1783      C2435   1.482       .  S
O1784     Cr1789   1.997       .  S
O1785     Cr1789   1.997       .  S
O1785      C1786   1.264       .  A
C1786      C2192   1.465       .  S
Cr1787     O1790   1.774       .  S
Cr1788     O1790   1.773       .  S
Cr1789     O1790   1.774       .  S
O1791     Cr1809   1.957       .  S
O1791      C1799   1.250       .  A
O1792     Cr1809   2.021       .  S
O1792      C1793   1.271       .  A
C1793      O1794   1.260       .  A
C1793      C2419   1.474   1_554  S
O1794     Cr1810   1.966       .  S
O1795     Cr1810   2.020       .  S
O1795      C1796   1.268       .  A
C1796      O1797   1.255       .  A
C1796      C2179   1.460       .  S
O1797     Cr1811   1.963       .  S
O1798     Cr1811   2.021       .  S
O1798      C1799   1.263       .  A
C1799      C2512   1.460       .  S
O1800     Cr1809   2.041       .  S
O1800      C1808   1.274       .  A
O1801     Cr1809   1.959       .  S
O1801      C1802   1.256       .  A
C1802      O1803   1.265       .  A
C1802      C2499   1.463       .  S
O1803     Cr1810   2.010       .  S
O1804     Cr1810   1.981       .  S
O1804      C1805   1.261       .  A
C1805      O1806   1.270       .  A
C1805      C2211   1.473       .  S
O1806     Cr1811   2.030       .  S
O1807     Cr1811   1.933       .  S
O1807      C1808   1.255       .  A
C1808      C2195   1.471       .  S
Cr1809     O1812   1.769       .  S
Cr1810     O1812   1.764       .  S
Cr1811     O1812   1.765       .  S
O1813     Cr1831   1.960       .  S
O1813      C1821   1.255       .  A
O1814     Cr1831   2.026       .  S
O1814      C1815   1.271       .  A
C1815      O1816   1.264       .  A
C1815      C2448   1.479       .  S
O1816     Cr1832   1.978       .  S
O1817     Cr1832   2.024       .  S
O1817      C1818   1.267       .  A
C1818      O1819   1.257       .  A
C1818      C2147   1.470       .  S
O1819     Cr1833   1.977       .  S
O1820     Cr1833   2.021       .  S
O1820      C1821   1.267       .  A
C1821      C2400   1.462       .  S
O1822     Cr1831   2.022       .  S
O1822      C1830   1.268       .  A
O1823     Cr1831   1.964       .  S
O1823      C1824   1.254       .  A
C1824      O1825   1.265       .  A
C1824      C2387   1.459       .  S
O1825     Cr1832   2.020       .  S
O1826     Cr1832   1.981       .  S
O1826      C1827   1.262       .  A
C1827      O1828   1.271       .  A
C1827      C2128   1.479       .  S
O1828     Cr1833   2.026       .  S
O1829     Cr1833   1.961       .  S
O1829      C1830   1.257       .  A
C1830      C2160   1.475       .  S
Cr1831     O1834   1.772       .  S
Cr1832     O1834   1.770       .  S
Cr1833     O1834   1.767       .  S
O1835     Cr1853   2.004       .  S
O1835      C1843   1.263       .  A
O1836     Cr1853   1.965       .  S
O1836      C1837   1.262       .  A
C1837      O1838   1.273       .  A
C1837      C2080   1.470       .  S
O1838     Cr1854   2.025       .  S
O1839     Cr1854   1.987       .  S
O1839      C1840   1.261       .  A
C1840      O1841   1.262       .  A
O1841     Cr1855   1.994       .  S
O1842     Cr1855   1.990       .  S
O1842      C1843   1.261       .  A
C1843      C2096   1.469       .  S
O1844     Cr1853   1.979       .  S
O1844      C1852   1.261       .  A
O1845     Cr1853   1.992       .  S
O1845      C1846   1.257       .  A
C1846      O1847   1.255       .  A
C1846      C2112   1.469       .  S
O1847     Cr1854   1.984       .  S
O1848     Cr1854   2.007       .  S
O1848      C1849   1.267       .  A
C1849      O1850   1.262       .  A
C1849      C2368   1.471       .  S
O1850     Cr1855   1.975       .  S
O1851     Cr1855   2.012       .  S
O1851      C1852   1.266       .  A
C1852      C2163   1.473       .  S
Cr1853     O1856   1.779       .  S
Cr1854     O1856   1.776       .  S
Cr1855     O1856   1.771       .  S
O1857     Cr1875   1.954       .  S
O1857      C1865   1.252       .  A
O1858     Cr1875   2.021       .  S
O1858      C1859   1.268       .  A
C1859      O1860   1.262       .  A
C1859      C2000   1.477       .  S
O1860     Cr1876   1.977       .  S
O1861     Cr1876   2.012       .  S
O1861      C1862   1.266       .  A
C1862      O1863   1.256       .  A
O1863     Cr1877   1.971       .  S
O1864     Cr1877   2.019       .  S
O1864      C1865   1.265       .  A
C1865      C2051   1.458       .  S
O1866     Cr1875   2.021       .  S
O1866      C1874   1.270       .  A
O1867     Cr1875   1.960       .  S
O1867      C1868   1.255       .  A
C1868      O1869   1.266       .  A
C1868      C2064   1.467       .  S
O1869     Cr1876   2.017       .  S
O1870     Cr1876   1.989       .  S
O1870      C1871   1.265       .  A
C1871      O1872   1.271       .  A
C1871      C2275   1.477       .  S
O1872     Cr1877   2.024       .  S
O1873     Cr1877   1.955       .  S
O1873      C1874   1.257       .  A
C1874      C2032   1.468       .  S
Cr1875     O1878   1.765       .  S
Cr1876     O1878   1.765       .  S
Cr1877     O1878   1.769       .  S
O1879     Cr1897   1.968       .  S
O1879      C1887   1.254       .  A
O1880     Cr1897   2.013       .  S
O1880      C1881   1.266       .  A
C1881      O1882   1.260       .  A
C1881      C2259   1.470       .  S
O1882     Cr1898   1.977       .  S
O1883     Cr1898   2.001       .  S
O1883      C1884   1.265       .  A
C1884      O1885   1.260       .  A
C1884      C2859   1.468   1_545  S
O1885     Cr1899   1.980       .  S
O1886     Cr1899   2.019       .  S
O1886      C1887   1.264       .  A
C1887      C2355   1.465       .  S
O1888     Cr1897   2.027       .  S
O1888      C1896   1.271       .  A
O1889     Cr1897   1.963       .  S
O1889      C1890   1.257       .  A
C1890      O1891   1.266       .  A
C1890      C2336   1.467       .  S
O1891     Cr1898   2.014       .  S
O1892     Cr1898   1.989       .  S
O1892      C1893   1.264       .  A
C1893      O1894   1.268       .  A
C1893      C1984   1.476       .  S
O1894     Cr1899   2.011       .  S
O1895     Cr1899   1.952       .  S
O1895      C1896   1.257       .  A
C1896      C2035   1.471       .  S
Cr1897     O1900   1.772       .  S
Cr1898     O1900   1.768       .  S
Cr1899     O1900   1.772       .  S
O1901     Cr1919   1.960       .  S
O1901      C1909   1.255       .  A
O1902     Cr1919   2.024       .  S
O1902      C1903   1.272       .  A
C1903      O1904   1.262       .  A
C1903      C2131   1.475       .  S
O1904     Cr1920   1.966       .  S
O1905     Cr1920   1.999       .  S
O1905      C1906   1.262       .  A
C1906      O1907   1.258       .  A
C1906      C2792   1.463       .  S
O1907     Cr1921   1.974       .  S
O1908     Cr1921   2.012       .  S
O1908      C1909   1.264       .  A
C1909      C2115   1.471       .  S
O1910     Cr1919   2.012       .  S
O1910      C1918   1.268       .  A
O1911     Cr1919   1.963       .  S
O1911      C1912   1.252       .  A
C1912      O1913   1.260       .  A
C1912      C2099   1.466       .  S
O1913     Cr1920   2.004       .  S
O1914     Cr1920   1.982       .  S
O1914      C1915   1.264       .  A
C1915      O1916   1.269       .  A
C1915      C2003   1.469       .  S
O1916     Cr1921   2.014       .  S
O1917     Cr1921   1.959       .  S
O1917      C1918   1.257       .  A
C1918      C1968   1.468       .  S
Cr1919     O1922   1.773       .  S
Cr1920     O1922   1.775       .  S
Cr1921     O1922   1.776       .  S
O1923     Cr1941   1.966       .  S
O1923      C1931   1.255       .  A
O1924     Cr1941   2.022       .  S
O1924      C1925   1.268       .  A
C1925      O1926   1.260       .  A
C1925      C1987   1.475       .  S
O1926     Cr1942   1.976       .  S
O1927     Cr1942   2.010       .  S
O1927      C1928   1.266       .  A
C1928      O1929   1.258       .  A
C1928      C1955   1.465       .  S
O1929     Cr1943   1.972       .  S
O1930     Cr1943   2.011       .  S
O1930      C1931   1.263       .  A
C1931      C2067   1.456       .  S
O1932     Cr1941   2.019       .  S
O1932      C1940   1.269       .  A
O1933     Cr1941   1.965       .  S
O1933      C1934   1.256       .  A
C1934      O1935   1.266       .  A
C1934      C2048   1.466       .  S
O1935     Cr1942   2.019       .  S
O1936     Cr1942   1.991       .  S
O1936      C1937   1.265       .  A
C1937      O1938   1.268       .  A
C1937      C2083   1.478       .  S
O1938     Cr1943   2.015       .  S
O1939     Cr1943   1.960       .  S
O1939      C1940   1.259       .  A
C1940      C1971   1.471       .  S
Cr1941     O1944   1.765       .  S
Cr1942     O1944   1.766       .  S
Cr1943     O1944   1.766       .  S
C1945      S1951   1.699       .  A
C1945      C1950   1.388       .  A
C1945      C1946   1.397       .  A
C1946      C1947   1.398       .  A
C1946      H1957   1.084       .  S
C1947      C1956   1.365       .  A
C1947      C1948   1.387       .  A
C1948      S1954   1.706       .  A
C1948      C1949   1.401       .  A
C1949      C1950   1.401       .  A
C1949      H1958   1.084       .  S
C1950      C1953   1.370       .  A
S1951      C1952   1.722       .  A
C1952      C2746   1.465   1_545  S
C1952      C1953   1.385       .  A
C1953      H1959   1.083       .  S
S1954      C1955   1.723       .  A
C1955      C1956   1.383       .  A
C1956      H1960   1.084       .  S
C1961      S1967   1.707       .  A
C1961      C1966   1.387       .  A
C1961      C1962   1.398       .  A
C1962      C1963   1.400       .  A
C1962      H1973   1.083       .  S
C1963      C1972   1.365       .  A
C1963      C1964   1.387       .  A
C1964      S1970   1.711       .  A
C1964      C1965   1.403       .  A
C1965      C1966   1.405       .  A
C1965      H1974   1.083       .  S
C1966      C1969   1.369       .  A
S1967      C1968   1.719       .  A
C1968      C1969   1.388       .  A
C1969      H1975   1.083       .  S
S1970      C1971   1.724       .  A
C1971      C1972   1.385       .  A
C1972      H1976   1.083       .  S
C1977      S1983   1.703       .  A
C1977      C1982   1.387       .  A
C1977      C1978   1.400       .  A
C1978      C1979   1.400       .  A
C1978      H1989   1.083       .  S
C1979      C1988   1.369       .  A
C1979      C1980   1.386       .  A
C1980      S1986   1.713       .  A
C1980      C1981   1.407       .  A
C1981      C1982   1.407       .  A
C1981      H1990   1.083       .  S
C1982      C1985   1.377       .  A
S1983      C1984   1.723       .  A
C1984      C1985   1.390       .  A
C1985      H1991   1.083       .  S
S1986      C1987   1.725       .  A
C1987      C1988   1.386       .  A
C1988      H1992   1.084       .  S
C1993      S1999   1.714       .  A
C1993      C1994   1.407   1_655  A
C1994      H2005   1.083   1_455  S
C1995      C2004   1.373       .  A
C1995      C1996   1.388       .  A
C1996      S2002   1.702       .  A
C1996      C1997   1.398       .  A
C1997      C1998   1.399       .  A
C1997      H2006   1.083       .  S
C1998      C2001   1.367       .  A
S1999      C2000   1.727       .  A
C2001      H2007   1.083       .  S
S2002      C2003   1.721       .  A
C2003      C2004   1.387       .  A
C2004      H2008   1.083       .  S
C2009      S2015   1.702       .  A
C2009      C2014   1.388       .  A
C2009      C2010   1.400       .  A
C2010      C2011   1.400       .  A
C2010      H2021   1.083       .  S
C2011      C2020   1.369       .  A
C2011      C2012   1.388       .  A
C2012      S2018   1.698       .  A
C2012      C2013   1.397       .  A
C2013      C2014   1.397       .  A
C2013      H2022   1.083       .  S
C2014      C2017   1.365       .  A
S2015      C2016   1.722       .  A
C2016      C2017   1.383       .  A
S2018      C2019   1.722       .  A
C2019      C2724   1.462       .  S
C2019      C2020   1.384       .  A
C2020      H2024   1.083       .  S
C2025      S2031   1.709       .  A
C2025      C2030   1.387       .  A
C2025      C2026   1.398       .  A
C2026      C2027   1.401       .  A
C2026      H2037   1.084       .  S
C2027      C2036   1.363       .  A
C2027      C2028   1.386       .  A
C2028      S2034   1.714       .  A
C2028      C2029   1.402       .  A
C2029      C2030   1.405       .  A
C2029      H2038   1.083       .  S
C2030      C2033   1.368       .  A
S2031      C2032   1.720       .  A
C2032      C2033   1.388       .  A
C2033      H2039   1.084       .  S
S2034      C2035   1.723       .  A
C2035      C2036   1.386       .  A
C2036      H2040   1.084       .  S
C2041      S2047   1.709       .  A
C2041      C2046   1.387       .  A
C2041      C2042   1.403       .  A
C2042      C2043   1.403       .  A
C2042      H2053   1.083       .  S
C2043      C2052   1.373       .  A
C2043      C2044   1.388       .  A
C2044      C2045   1.398       .  A
C2045      C2046   1.398       .  A
C2045      H2054   1.083       .  S
C2046      C2049   1.366       .  A
S2047      C2048   1.722       .  A
C2048      C2049   1.384       .  A
C2049      H2055   1.083       .  S
S2050      C2051   1.719   1_455  A
C2052      H2056   1.083       .  S
C2057      S2063   1.708       .  A
C2057      C2062   1.387       .  A
C2057      C2058   1.401       .  A
C2058      C2059   1.402       .  A
C2058      H2069   1.083       .  S
C2059      C2068   1.369       .  A
C2059      C2060   1.388       .  A
C2060      S2066   1.704       .  A
C2060      C2061   1.398       .  A
C2061      C2062   1.400       .  A
C2061      H2070   1.083       .  S
C2062      C2065   1.365       .  A
S2063      C2064   1.722       .  A
C2064      C2065   1.385       .  A
C2065      H2071   1.083       .  S
S2066      C2067   1.718       .  A
C2067      C2068   1.382       .  A
C2068      H2072   1.083       .  S
C2073      S2079   1.708       .  A
C2073      C2074   1.404   1_655  A
C2074      H2085   1.083       .  S
C2075      C2084   1.376       .  A
C2075      C2076   1.387       .  A
C2076      S2082   1.707       .  A
C2076      C2077   1.404       .  A
C2077      C2078   1.404       .  A
C2077      H2086   1.083       .  S
C2078      C2081   1.375       .  A
S2079      C2080   1.724       .  A
C2081      H2087   1.083       .  S
S2082      C2083   1.725       .  A
C2083      C2084   1.388       .  A
C2084      H2088   1.083       .  S
C2089      S2095   1.707       .  A
C2089      C2094   1.387       .  A
C2089      C2090   1.398       .  A
C2090      C2091   1.400       .  A
C2090      H2101   1.083       .  S
C2091      C2100   1.365       .  A
C2091      C2092   1.387       .  A
C2092      S2098   1.708       .  A
C2093      H2102   1.083   1_455  S
C2096      C2097   1.386       .  A
C2097      H2103   1.083       .  S
S2098      C2099   1.722       .  A
C2099      C2100   1.385       .  A
C2100      H2104   1.084       .  S
C2105      S2111   1.709       .  A
C2105      C2110   1.387       .  A
C2105      C2106   1.400       .  A
C2106      C2107   1.403       .  A
C2106      H2117   1.084   1_545  S
C2107      C2956   1.366   1_545  A
C2107      C2108   1.387       .  A
C2108      S2114   1.710       .  A
C2108      C2109   1.400       .  A
C2109      C2110   1.402       .  A
C2109      H2118   1.083       .  S
C2110      C2113   1.367       .  A
S2111      C2112   1.723       .  A
C2112      C2113   1.386       .  A
C2113      H2119   1.083       .  S
S2114      C2955   1.720   1_545  A
C2115      S2954   1.723       .  A
C2115      C2116   1.386       .  A
C2116      C2947   1.366       .  A
C2116      H2120   1.084       .  S
C2121      S2127   1.712       .  A
C2121      C2126   1.386       .  A
C2121      C2122   1.407       .  A
C2122      C2123   1.407       .  A
C2122      H2133   1.083   1_545  S
C2123      C2972   1.378   1_545  A
C2123      C2124   1.387       .  A
C2124      S2970   1.705       .  A
C2124      C2125   1.402       .  A
C2125      C2126   1.402       .  A
C2125      H2134   1.083       .  S
C2126      C2129   1.373       .  A
S2127      C2128   1.727       .  A
C2128      C2129   1.388       .  A
C2129      H2135   1.083       .  S
S2130      C2964   1.702       .  A
S2130      C2131   1.723       .  A
C2131      C2132   1.390       .  A
C2132      C2963   1.376       .  A
C2132      H2136   1.083       .  S
C2137      S2143   1.711       .  A
C2137      C2142   1.387       .  A
C2137      C2138   1.403       .  A
C2138      C2139   1.405       .  A
C2138      H2149   1.083       .  S
C2139      C2148   1.372       .  A
C2139      C2140   1.387       .  A
C2140      S2146   1.711       .  A
C2140      C2141   1.402       .  A
C2141      C2142   1.404       .  A
C2141      H2150   1.083       .  S
C2142      C2145   1.371       .  A
S2143      C2144   1.724       .  A
C2144      C2145   1.388       .  A
C2145      H2151   1.083       .  S
S2146      C2147   1.722       .  A
C2147      C2148   1.387       .  A
C2148      H2152   1.083       .  S
C2153      S2159   1.715       .  A
C2153      C2158   1.386       .  A
C2153      C2154   1.405       .  A
C2154      C2155   1.407       .  A
C2154      H2165   1.084       .  S
C2155      C2164   1.372       .  A
C2155      C2156   1.387       .  A
C2156      S2162   1.706       .  A
C2156      C2157   1.398       .  A
C2157      C2158   1.400       .  A
C2157      H2166   1.084       .  S
C2158      C2161   1.365       .  A
S2159      C2160   1.725       .  A
C2160      C2161   1.387       .  A
C2161      H2167   1.084       .  S
S2162      C2163   1.721       .  A
C2163      C2164   1.390       .  A
C2164      H2168   1.083       .  S
C2169      S2175   1.705       .  A
C2169      C2174   1.387       .  A
C2169      C2170   1.399       .  A
C2170      C2171   1.400       .  A
C2170      H2181   1.084       .  S
C2171      C2180   1.366       .  A
C2171      C2172   1.388       .  A
C2172      S2178   1.704       .  A
C2172      C2173   1.398       .  A
C2173      C2174   1.400       .  A
C2173      H2182   1.084       .  S
C2174      C2177   1.366       .  A
S2175      C2176   1.721       .  A
C2176      C2614   1.463       .  S
C2176      C2177   1.384       .  A
C2177      H2183   1.084       .  S
S2178      C2179   1.721       .  A
C2179      C2180   1.383       .  A
C2180      H2184   1.084       .  S
C2185      S2191   1.703       .  A
C2185      C2190   1.387       .  A
C2185      C2186   1.392       .  A
C2186      C2187   1.396       .  A
C2186      H2197   1.084       .  S
C2187      C2196   1.355       .  A
C2187      C2188   1.385       .  A
C2188      S2194   1.719       .  A
C2188      C2189   1.404       .  A
C2189      C2190   1.408       .  A
C2189      H2198   1.083       .  S
C2190      C2193   1.368       .  A
S2191      C2192   1.717       .  A
C2192      C2193   1.390       .  A
C2193      H2199   1.083       .  S
S2194      C2195   1.724       .  A
C2195      C2196   1.385       .  A
C2196      H2200   1.084       .  S
C2201      C2206   1.387       .  A
C2201      C2202   1.404       .  A
C2202      C2203   1.405       .  A
C2202      H2213   1.083       .  S
C2203      C2212   1.375       .  A
C2203      C2204   1.387       .  A
C2204      S2210   1.710       .  A
C2204      C2205   1.404       .  A
C2205      C2206   1.404       .  A
C2205      H2214   1.083       .  S
C2206      C2209   1.375   1_655  A
S2207      C2208   1.725       .  A
C2209      H2215   1.083       .  S
S2210      C2211   1.723       .  A
C2211      C2212   1.387       .  A
C2212      H2216   1.083       .  S
C2217      S2223   1.709       .  A
C2217      C2222   1.387       .  A
C2217      C2218   1.399       .  A
C2218      C2219   1.402       .  A
C2218      H2229   1.084   1_655  S
C2219      C2220   1.386       .  A
C2220      S2226   1.713       .  A
C2220      C2221   1.402       .  A
C2221      C2222   1.404       .  A
C2221      H2230   1.084       .  S
C2222      C2225   1.368       .  A
S2223      C2224   1.721       .  A
C2224      C2225   1.388       .  A
C2225      H2231   1.084       .  S
C2227      C2228   1.388       .  A
C2228      H2232   1.084       .  S
C2233      S2239   1.714       .  A
C2233      C2238   1.386       .  A
C2233      C2234   1.403       .  A
C2234      C2235   1.405       .  A
C2234      H2245   1.083       .  S
C2235      C2244   1.371       .  A
C2235      C2236   1.386       .  A
C2236      S2242   1.712       .  A
C2236      C2237   1.402       .  A
C2237      C2238   1.405       .  A
C2237      H3086   1.083       .  S
C2238      C3081   1.370       .  A
S2239      C3080   1.723       .  A
C2240      S3079   1.724   1_545  A
C2240      C2241   1.388       .  A
C2241      C3078   1.365   1_545  A
C2241      H2247   1.084       .  S
S2242      C2243   1.724       .  A
C2243      C2244   1.390       .  A
C2244      H2248   1.083       .  S
H2246      C3077   1.083   1_545  S
C2249      S2255   1.709       .  A
C2249      C2254   1.387       .  A
C2249      C2250   1.402       .  A
C2250      C2251   1.403       .  A
C2250      H2261   1.083       .  S
C2251      C3100   1.371       .  A
C2251      C2252   1.387       .  A
C2252      S3098   1.712       .  A
C2252      C2253   1.404       .  A
C2253      C2254   1.405       .  A
C2253      H2262   1.083       .  S
C2254      C2257   1.372       .  A
S2255      C2256   1.722       .  A
C2256      C2257   1.388       .  A
C2257      H2263   1.083       .  S
S2258      C3092   1.709   1_545  A
S2258      C2259   1.722       .  A
C2259      C2260   1.386   1_545  A
C2260      C3091   1.369       .  A
C2260      H2264   1.083       .  S
C2265      S2271   1.715       .  A
C2265      C2270   1.386       .  A
C2265      C2266   1.408       .  A
C2266      C2267   1.408       .  A
C2266      H2277   1.083       .  S
C2267      C2276   1.379       .  A
C2267      C2268   1.387       .  A
C2268      S2274   1.707       .  A
C2268      C2269   1.402       .  A
C2269      C2270   1.403       .  A
C2269      H2278   1.083       .  S
C2270      C2273   1.373       .  A
S2271      C2272   1.728       .  A
C2272      C2273   1.389       .  A
C2273      H2279   1.083       .  S
S2274      C2275   1.723       .  A
C2275      C2276   1.390       .  A
C2276      H2280   1.083       .  S
C2281      S2287   1.707       .  A
C2281      C3126   1.387       .  A
C2281      C3122   1.402       .  A
C2282      C3121   1.402       .  A
C2282      C2283   1.402       .  A
C2282      H3133   1.084       .  S
C2283      C2292   1.372       .  A
C2283      C2284   1.386       .  A
C2284      S2290   1.716       .  A
C2284      C2285   1.409       .  A
C2285      C2286   1.409       .  A
C2285      H2294   1.083       .  S
C2286      C3121   1.387       .  A
C2286      C2289   1.380       .  A
S2287      C2288   1.722   1_565  A
C2288      C3129   1.388       .  A
C2289      C3128   1.391       .  A
C2289      H2295   1.083       .  S
S2290      C2291   1.727       .  A
C2291      C2292   1.387       .  A
C2292      H2296   1.084       .  S
H2293      C3122   1.084       .  S
C2297      S2303   1.706       .  A
C2297      C2302   1.387       .  A
C2297      C2298   1.402       .  A
C2298      C2299   1.402       .  A
C2298      H2309   1.083       .  S
C2299      C2308   1.372       .  A
C2299      C2300   1.387       .  A
C2300      S2306   1.708       .  A
C2300      C2301   1.403       .  A
C2301      C2302   1.403       .  A
C2301      H2310   1.083       .  S
C2302      C2305   1.372       .  A
S2303      C2304   1.723       .  A
C2304      C2305   1.387       .  A
C2305      H2311   1.083       .  S
S2306      C2307   1.723       .  A
C2307      C2308   1.385       .  A
C2308      H2312   1.083       .  S
C2313      S2319   1.712       .  A
C2313      C2318   1.386       .  A
C2313      C2314   1.401       .  A
C2314      C2315   1.403       .  A
C2314      H2325   1.084       .  S
C2315      C2324   1.366       .  A
C2315      C2316   1.386       .  A
C2316      S2322   1.712       .  A
C2316      C2317   1.400       .  A
C2317      C2318   1.403       .  A
C2317      H2326   1.083       .  S
C2318      C2321   1.366       .  A
S2319      C2320   1.722       .  A
C2320      C2321   1.388       .  A
C2321      H2327   1.084       .  S
S2322      C2323   1.722       .  A
C2323      C2324   1.388       .  A
C2324      H2328   1.084       .  S
C2329      S2335   1.711       .  A
C2329      C2334   1.387       .  A
C2329      C2330   1.400       .  A
C2330      C2331   1.403       .  A
C2330      H2341   1.083       .  S
C2331      C2340   1.366       .  A
C2331      C2332   1.387       .  A
C2332      S2338   1.713       .  A
C2332      C2333   1.401       .  A
C2333      C2334   1.403       .  A
C2333      H2342   1.083       .  S
C2334      C2337   1.367       .  A
S2335      C2336   1.721       .  A
C2336      C2337   1.385       .  A
C2337      H2343   1.083       .  S
S2338      C2339   1.719       .  A
C2339      C2340   1.385       .  A
C2340      H2344   1.083       .  S
C2345      S2351   1.714       .  A
C2345      C2350   1.386       .  A
C2345      C2346   1.404       .  A
C2346      C2347   1.406       .  A
C2346      H3197   1.084       .  S
C2347      C3196   1.372       .  A
C2347      C2348   1.388       .  A
C2348      S2354   1.702       .  A
C2348      C2349   1.395       .  A
C2349      C2350   1.397       .  A
C2349      H2358   1.084       .  S
C2350      C2353   1.361       .  A
S2351      C2352   1.724       .  A
C2352      C2353   1.384       .  A
C2353      H2359   1.084       .  S
S2354      C3195   1.717       .  A
C2355      S3194   1.718   1_545  A
C2355      C2356   1.387       .  A
C2356      C3187   1.375   1_545  A
C2356      H2360   1.083       .  S
H2357      C3186   1.084       .  S
C2361      S2367   1.704       .  A
C2361      C2366   1.387       .  A
C2361      C3202   1.398       .  A
C2362      C3201   1.400       .  A
C2362      C2363   1.401       .  A
C2362      H2373   1.084       .  S
C2363      C2372   1.368       .  A
C2363      C3204   1.388       .  A
C2364      S2370   1.712       .  A
C2364      C3203   1.388   1_565  A
C2364      C2365   1.404   1_565  A
C2365      C2366   1.405       .  A
C2365      H2374   1.083   1_545  S
C2366      C2369   1.372       .  A
S2367      C2368   1.721       .  A
C2368      C2369   1.389       .  A
C2369      H2375   1.083       .  S
S2370      C3211   1.721       .  A
C2371      S3210   1.719       .  A
C2371      C2372   1.382       .  A
C2372      H2376   1.083       .  S
C2377      S2383   1.717       .  A
C2377      C2382   1.386       .  A
C2377      C2378   1.406       .  A
C2378      C2379   1.408       .  A
C2378      H2389   1.083       .  S
C2379      C2388   1.373       .  A
C2379      C2380   1.388       .  A
C2380      S2386   1.703       .  A
C2380      C2381   1.395       .  A
C2381      C2382   1.398       .  A
C2381      H2390   1.084       .  S
C2382      C3225   1.362       .  A
S2383      C3224   1.726   1_545  A
C2384      S3223   1.725       .  A
C2384      C2385   1.385       .  A
C2385      C3222   1.368       .  A
C2385      H2391   1.084       .  S
S2386      C2387   1.715       .  A
C2387      C2388   1.387       .  A
C2388      H2392   1.083       .  S
C2393      S2399   1.709       .  A
C2393      C2398   1.387       .  A
C2393      C2394   1.401       .  A
C2394      C2395   1.402       .  A
C2394      H2405   1.083       .  S
C2395      C2404   1.369       .  A
C2395      C2396   1.387       .  A
C2396      S2402   1.710       .  A
C2396      C2397   1.402       .  A
C2397      C2398   1.404       .  A
C2397      H2406   1.083       .  S
C2398      C2401   1.370       .  A
S2399      C2400   1.719       .  A
C2400      C2401   1.385       .  A
C2401      H2407   1.083       .  S
S2402      C2403   1.723       .  A
C2403      C2404   1.386       .  A
C2404      H2408   1.083       .  S
C2409      S2415   1.707       .  A
C2409      C2414   1.387       .  A
C2409      C2410   1.405       .  A
C2410      C2411   1.404       .  A
C2410      H2421   1.083       .  S
C2411      C2420   1.376       .  A
C2411      C2412   1.387       .  A
C2412      S2418   1.701       .  A
C2412      C2413   1.400       .  A
C2413      C2414   1.400       .  A
C2413      H2422   1.083       .  S
C2414      C2417   1.371       .  A
S2415      C2416   1.725       .  A
C2416      C2417   1.384       .  A
C2417      H2423   1.083       .  S
S2418      C2419   1.723       .  A
C2419      C2420   1.389       .  A
C2420      H2424   1.083       .  S
C2425      C2430   1.387       .  A
C2425      C2426   1.404       .  A
C2426      C2427   1.404       .  A
C2426      H2437   1.083       .  S
C2427      C2436   1.374       .  A
C2427      C2428   1.386       .  A
C2428      S2434   1.716       .  A
C2428      C2429   1.408       .  A
C2429      C2430   1.409       .  A
C2429      H2438   1.083       .  S
S2431      C2432   1.725       .  A
C2432      C2433   1.388       .  A
C2433      H2439   1.084       .  S
S2434      C2435   1.727       .  A
C2435      C2436   1.389       .  A
C2436      H2440   1.083       .  S
C2441      S2447   1.715       .  A
C2441      C2446   1.386       .  A
C2441      C2442   1.409       .  A
C2442      C2443   1.409       .  A
C2442      H2453   1.082       .  S
C2443      C2452   1.381       .  A
C2443      C2444   1.387       .  A
C2444      S2450   1.700       .  A
C2444      C2445   1.399       .  A
C2445      C2446   1.399       .  A
C2445      H2454   1.083       .  S
C2446      C2449   1.370       .  A
S2447      C2448   1.728       .  A
C2448      C2449   1.386       .  A
C2449      H2455   1.083       .  S
S2450      C2451   1.723       .  A
C2451      C2452   1.391       .  A
C2452      H2456   1.082       .  S
C2457      S2463   1.708       .  A
C2457      C2462   1.387       .  A
C2457      C2458   1.402       .  A
C2458      C2459   1.403       .  A
C2458      H2469   1.083       .  S
C2459      C2468   1.372       .  A
C2459      C2460   1.387       .  A
C2460      S2466   1.707       .  A
C2460      C2461   1.402       .  A
C2461      C2462   1.402       .  A
C2461      H2470   1.083       .  S
C2462      C2465   1.370       .  A
S2463      C2464   1.723       .  A
C2464      C2465   1.387       .  A
C2465      H2471   1.083       .  S
S2466      C2467   1.724       .  A
C2467      C2548   1.473   1_545  S
C2467      C2468   1.387       .  A
C2468      H3312   1.083   1_545  S
H2472      C3308   1.083       .  S
C2473      S2479   1.700       .  A
C2473      C2478   1.388       .  A
C2473      C2474   1.401       .  A
C2474      C2475   1.400       .  A
C2474      H2485   1.083       .  S
C2475      C2484   1.373       .  A
C2475      C2476   1.388       .  A
C2476      S2482   1.700       .  A
C2476      C2477   1.402       .  A
C2477      C2478   1.401       .  A
C2477      H2486   1.083       .  S
C2478      C2481   1.373       .  A
S2479      C2480   1.724       .  A
C2480      C2481   1.386       .  A
C2481      H2487   1.083       .  S
S2482      C2483   1.725       .  A
C2483      C2484   1.383       .  A
C2484      H2488   1.083       .  S
C2489      C2494   1.387       .  A
C2489      C2490   1.401       .  A
C2490      C2491   1.403       .  A
C2491      C2500   1.367       .  A
C2491      C2492   1.388   1_556  A
C2492      S2498   1.707       .  A
C2492      C2493   1.398   1_554  A
C2493      C2494   1.400       .  A
C2493      H2502   1.084   1_656  S
C2494      C2497   1.364   1_655  A
S2495      C2496   1.719       .  A
C2497      H2503   1.084       .  S
S2498      C2499   1.718       .  A
C2499      C2500   1.385   1_554  A
C2500      H2504   1.084       .  S
C2505      S2511   1.700       .  A
C2505      C2510   1.388       .  A
C2505      C2506   1.396       .  A
C2506      C2507   1.398       .  A
C2506      H2517   1.084   1_554  S
C2507      C2516   1.364   1_554  A
C2507      C2508   1.387       .  A
C2508      S2514   1.712       .  A
C2508      C2509   1.404       .  A
C2509      C2510   1.405       .  A
C2509      H2518   1.084       .  S
C2510      C2513   1.373       .  A
S2511      C2512   1.719       .  A
C2512      C2513   1.385       .  A
C2513      H2519   1.083       .  S
S2514      C2515   1.724       .  A
C2515      C2516   1.384   1_554  A
C2516      H2520   1.084       .  S
O2521     Cr2539   1.958       .  S
O2521      C2529   1.256       .  A
O2522     Cr2539   2.039   1_554  S
O2522      C2523   1.274       .  A
C2523      O2524   1.262   1_554  A
C2523      C3272   1.479       .  S
O2524     Cr2540   1.970       .  S
O2525     Cr2540   2.010       .  S
O2525      C2526   1.263       .  A
C2526      O2527   1.256       .  A
O2527     Cr2541   1.973       .  S
O2528     Cr2541   2.007       .  S
O2528      C2529   1.264       .  A
C2529      C3336   1.463       .  S
O2530     Cr2539   2.019       .  S
O2530      C2538   1.269       .  A
O2531     Cr2539   1.970       .  S
O2531      C2532   1.254       .  A
C2532      O2533   1.263       .  A
C2532      C3355   1.472       .  S
O2533     Cr2540   2.019       .  S
O2534     Cr2540   1.987       .  S
O2534      C2535   1.266       .  A
C2535      O2536   1.271       .  A
C2535      C3291   1.474       .  S
O2536     Cr2541   2.015       .  S
O2537     Cr2541   1.957       .  S
O2537      C2538   1.256       .  A
C2538      C3320   1.470       .  S
Cr2539     O2542   1.771       .  S
Cr2540     O2542   1.774       .  S
Cr2541     O2542   1.768       .  S
O2543     Cr2561   1.953       .  S
O2543      C2551   1.255       .  A
O2544     Cr2561   2.021       .  S
O2544      C2545   1.269       .  A
C2545      O2546   1.262       .  A
C2545      C3211   1.462       .  S
O2546     Cr2562   1.974       .  S
O2547     Cr2562   2.024       .  S
O2547      C2548   1.266       .  A
C2548      O2549   1.254       .  A
O2549     Cr2563   1.970       .  S
O2550     Cr2563   2.026       .  S
O2550      C2551   1.268       .  A
C2551      C3224   1.474       .  S
O2552     Cr2561   2.023       .  S
O2552      C2560   1.269       .  A
O2553     Cr2561   1.965       .  S
O2553      C2554   1.256       .  A
C2554      O2555   1.266       .  A
C2554      C3243   1.469       .  S
O2555     Cr2562   2.019       .  S
O2556     Cr2562   1.964       .  S
O2556      C2557   1.260       .  A
C2557      O2558   1.274       .  A
C2557      C3256   1.470       .  S
O2558     Cr2563   2.033       .  S
O2559     Cr2563   1.950       .  S
O2559      C2560   1.254       .  A
C2560      C3323   1.469       .  S
Cr2561     O2564   1.769       .  S
Cr2562     O2564   1.770       .  S
Cr2563     O2564   1.771       .  S
O2565     Cr2583   1.953       .  S
O2565      C2573   1.254       .  A
O2566     Cr2583   2.027       .  S
O2566      C2567   1.273       .  A
C2567      O2568   1.263       .  A
C2567      C3112   1.478       .  S
O2568     Cr2584   1.970       .  S
O2569     Cr2584   2.026       .  S
O2569      C2570   1.267       .  A
C2570      O2571   1.256       .  A
C2570      C3144   1.467       .  S
O2571     Cr2585   1.975       .  S
O2572     Cr2585   2.011       .  S
O2572      C2573   1.264       .  A
C2573      C3179   1.460       .  S
O2574     Cr2583   2.016       .  S
O2574      C2582   1.267       .  A
O2575     Cr2583   1.963       .  S
O2575      C2576   1.253       .  A
C2576      O2577   1.264       .  A
C2576      C3192   1.473       .  S
O2577     Cr2584   2.025       .  S
O2578     Cr2584   1.984       .  S
O2578      C2579   1.263       .  A
C2579      O2580   1.270       .  A
C2579      C3131   1.471       .  S
O2580     Cr2585   2.022       .  S
O2581     Cr2585   1.960       .  S
O2581      C2582   1.258       .  A
C2582      C3160   1.471       .  S
Cr2583     O2586   1.769       .  S
Cr2584     O2586   1.771       .  S
Cr2585     O2586   1.767       .  S
O2587     Cr2605   1.989       .  S
O2587      C2595   1.259       .  A
O2588     Cr2605   1.980       .  S
O2588      C2589   1.265       .  A
C2589      O2590   1.271       .  A
C2589      C3048   1.475       .  S
O2590     Cr2606   2.015       .  S
O2591     Cr2606   1.982       .  S
O2591      C2592   1.260       .  A
C2592      O2593   1.260       .  A
O2593     Cr2607   1.984       .  S
O2594     Cr2607   1.991       .  S
O2594      C2595   1.258       .  A
C2595      C3067   1.470       .  S
O2596     Cr2605   1.980       .  S
O2596      C2604   1.264       .  A
O2597     Cr2605   1.991       .  S
O2597      C2598   1.256       .  A
C2598      O2599   1.257       .  A
C2598      C3083   1.474       .  S
O2599     Cr2606   1.990       .  S
O2600     Cr2606   1.997       .  S
O2600      C2601   1.265       .  A
C2601      O2602   1.261       .  A
C2601      C3096   1.466       .  S
O2602     Cr2607   1.977       .  S
O2603     Cr2607   2.007       .  S
O2603      C2604   1.268       .  A
C2604      C3163   1.470       .  S
Cr2605     O2608   1.780       .  S
Cr2606     O2608   1.776       .  S
Cr2607     O2608   1.779       .  S
O2609     Cr2627   1.994       .  S
O2609      C2617   1.258       .  A
O2610     Cr2627   1.983       .  S
O2610      C2611   1.267       .  A
C2611      O2612   1.274       .  A
C2611      C3128   1.477       .  S
O2612     Cr2628   2.019       .  S
O2613     Cr2628   1.974       .  S
O2613      C2614   1.257       .  A
C2614      O2615   1.259       .  A
O2615     Cr2629   1.980       .  S
O2616     Cr2629   1.997       .  S
O2616      C2617   1.259       .  A
C2617      C3080   1.478       .  S
O2618     Cr2627   1.979       .  S
O2618      C2626   1.266       .  A
O2619     Cr2627   1.994       .  S
O2619      C2620   1.255       .  A
C2620      O2621   1.253       .  A
C2620      C3064   1.473       .  S
O2621     Cr2628   1.985       .  S
O2622     Cr2628   2.003       .  S
O2622      C2623   1.265       .  A
C2623      O2624   1.263       .  A
C2623      C3275   1.481       .  S
O2624     Cr2629   1.992       .  S
O2625     Cr2629   2.003       .  S
O2625      C2626   1.267       .  A
C2626      C3032   1.468       .  S
Cr2627     O2630   1.785       .  S
Cr2628     O2630   1.780       .  S
Cr2629     O2630   1.785       .  S
O2631     Cr2649   1.958       .  S
O2631      C2639   1.250       .  A
O2632     Cr2649   2.022   1_556  S
O2632      C2633   1.271   1_556  A
C2633      O2634   1.261       .  A
C2633      C3259   1.473   1_554  S
O2634     Cr2650   1.965       .  S
O2635     Cr2650   2.013       .  S
O2635      C2636   1.266       .  A
C2636      O2637   1.255       .  A
C2636      C3019   1.456       .  S
O2637     Cr2651   1.966       .  S
O2638     Cr2651   2.026       .  S
O2638      C2639   1.265       .  A
C2639      C3352   1.466       .  S
O2640     Cr2649   2.043       .  S
O2640      C2648   1.274       .  A
O2641     Cr2649   1.956       .  S
O2641      C2642   1.254       .  A
C2642      O2643   1.262       .  A
C2642      C3339   1.454       .  S
O2643     Cr2650   2.002       .  S
O2644     Cr2650   1.980       .  S
O2644      C2645   1.260       .  A
C2645      O2646   1.271       .  A
C2645      C3051   1.473       .  S
O2646     Cr2651   2.035       .  S
O2647     Cr2651   1.932       .  S
O2647      C2648   1.255       .  A
C2648      C3035   1.474       .  S
Cr2649     O2652   1.770       .  S
Cr2650     O2652   1.765       .  S
Cr2651     O2652   1.764       .  S
O2653     Cr2671   1.958       .  S
O2653      C2661   1.256       .  A
O2654     Cr2671   2.032       .  S
O2654      C2655   1.272       .  A
C2655      O2656   1.261       .  A
C2655      C3288   1.476       .  S
O2656     Cr2672   1.964       .  S
O2657     Cr2672   2.037       .  S
O2657      C2658   1.269       .  A
C2658      O2659   1.256       .  A
C2658      C2987   1.475       .  S
O2659     Cr2673   1.973       .  S
O2660     Cr2673   2.022       .  S
O2660      C2661   1.268       .  A
C2661      C3240   1.465       .  S
O2662     Cr2671   2.017       .  S
O2662      C2670   1.268       .  A
O2663     Cr2671   1.963       .  S
O2663      C2664   1.253       .  A
C2664      O2665   1.267       .  A
C2664      C3227   1.472       .  S
O2665     Cr2672   2.035       .  S
O2666     Cr2672   1.974       .  S
O2666      C2667   1.261       .  A
C2667      O2668   1.272       .  A
C2667      C2968   1.472       .  S
O2668     Cr2673   2.027       .  S
O2669     Cr2673   1.966       .  S
O2669      C2670   1.258       .  A
C2670      C3000   1.474       .  S
Cr2671     O2674   1.768       .  S
Cr2672     O2674   1.771       .  S
Cr2673     O2674   1.766       .  S
O2675     Cr2693   1.999       .  S
O2675      C2683   1.262       .  A
O2676     Cr2693   1.973       .  S
O2676      C2677   1.263       .  A
C2677      O2678   1.272       .  A
C2677      C2920   1.473       .  S
O2678     Cr2694   2.019       .  S
O2679     Cr2694   1.981       .  S
O2679      C2680   1.261       .  A
C2680      O2681   1.264       .  A
O2681     Cr2695   2.000       .  S
O2682     Cr2695   1.984       .  S
O2682      C2683   1.259       .  A
C2683      C2936   1.464       .  S
O2684     Cr2693   1.981       .  S
O2684      C2692   1.262       .  A
O2685     Cr2693   1.998       .  S
O2685      C2686   1.259       .  A
C2686      O2687   1.257       .  A
C2686      C2952   1.472       .  S
O2687     Cr2694   1.987       .  S
O2688     Cr2694   2.003       .  S
O2688      C2689   1.265       .  A
C2689      O2690   1.260       .  A
C2689      C3208   1.468       .  S
O2690     Cr2695   1.976       .  S
O2691     Cr2695   2.012       .  S
O2691      C2692   1.268       .  A
C2692      C3003   1.473       .  S
Cr2693     O2696   1.778       .  S
Cr2694     O2696   1.773       .  S
Cr2695     O2696   1.769       .  S
O2697     Cr2715   1.957       .  S
O2697      C2705   1.253       .  A
O2698     Cr2715   2.014       .  S
O2698      C2699   1.267       .  A
C2699      O2700   1.262       .  A
C2699      C2840   1.475       .  S
O2700     Cr2716   1.981       .  S
O2701     Cr2716   2.014       .  S
O2701      C2702   1.267       .  A
C2702      O2703   1.258       .  A
O2703     Cr2717   1.974       .  S
O2704     Cr2717   2.021       .  S
O2704      C2705   1.265       .  A
C2705      C2891   1.460       .  S
O2706     Cr2715   2.023       .  S
O2706      C2714   1.270       .  A
O2707     Cr2715   1.956       .  S
O2707      C2708   1.255       .  A
C2708      O2709   1.265       .  A
C2708      C2904   1.459       .  S
O2709     Cr2716   2.010       .  S
O2710     Cr2716   1.980       .  S
O2710      C2711   1.261       .  A
C2711      O2712   1.270       .  A
C2711      C3115   1.472       .  S
O2712     Cr2717   2.022       .  S
O2713     Cr2717   1.956       .  S
O2713      C2714   1.257       .  A
C2714      C2872   1.470       .  S
Cr2715     O2718   1.767       .  S
Cr2716     O2718   1.767       .  S
Cr2717     O2718   1.772       .  S
O2719     Cr2737   1.965       .  S
O2719      C2727   1.254       .  A
O2720     Cr2737   2.019       .  S
O2720      C2721   1.267       .  A
C2721      O2722   1.261       .  A
C2721      C3099   1.470       .  S
O2722     Cr2738   1.980       .  S
O2723     Cr2738   1.994       .  S
O2723      C2724   1.262       .  A
C2724      O2725   1.260       .  A
O2725     Cr2739   1.979       .  S
O2726     Cr2739   2.014       .  S
O2726      C2727   1.263       .  A
C2727      C3195   1.459       .  S
O2728     Cr2737   2.026       .  S
O2728      C2736   1.271       .  A
O2729     Cr2737   1.964       .  S
O2729      C2730   1.256       .  A
C2730      O2731   1.263       .  A
C2730      C3176   1.458       .  S
O2731     Cr2738   2.002       .  S
O2732     Cr2738   1.987       .  S
O2732      C2733   1.264       .  A
C2733      O2734   1.268       .  A
C2733      C2824   1.471       .  S
O2734     Cr2739   2.007       .  S
O2735     Cr2739   1.953       .  S
O2735      C2736   1.257       .  A
C2736      C2875   1.472       .  S
Cr2737     O2740   1.770       .  S
Cr2738     O2740   1.767       .  S
Cr2739     O2740   1.770       .  S
O2741     Cr2759   1.956       .  S
O2741      C2749   1.254       .  A
O2742     Cr2759   2.025       .  S
O2742      C2743   1.271       .  A
C2743      O2744   1.262       .  A
C2743      C2971   1.478       .  S
O2744     Cr2760   1.974       .  S
O2745     Cr2760   1.996       .  S
O2745      C2746   1.261       .  A
C2746      O2747   1.258       .  A
O2747     Cr2761   1.978       .  S
O2748     Cr2761   2.011       .  S
O2748      C2749   1.265       .  A
C2749      C2955   1.467       .  S
O2750     Cr2759   2.012       .  S
O2750      C2758   1.267       .  A
O2751     Cr2759   1.957       .  S
O2751      C2752   1.251       .  A
C2752      O2753   1.261       .  A
C2752      C2939   1.464       .  S
O2753     Cr2760   2.010       .  S
O2754     Cr2760   1.987       .  S
O2754      C2755   1.266       .  A
C2755      O2756   1.270       .  A
C2755      C2843   1.475       .  S
O2756     Cr2761   2.016       .  S
O2757     Cr2761   1.957       .  S
O2757      C2758   1.257       .  A
C2758      C2808   1.467       .  S
Cr2759     O2762   1.778       .  S
Cr2760     O2762   1.775       .  S
Cr2761     O2762   1.775       .  S
O2763     Cr2781   1.957       .  S
O2763      C2771   1.255       .  A
O2764     Cr2781   2.025       .  S
O2764      C2765   1.271       .  A
C2765      O2766   1.262       .  A
C2765      C2827   1.473       .  S
O2766     Cr2782   1.967       .  S
O2767     Cr2782   2.006       .  S
O2767      C2768   1.264       .  A
C2768      O2769   1.255       .  A
C2768      C2795   1.461       .  S
O2769     Cr2783   1.969       .  S
O2770     Cr2783   2.008       .  S
O2770      C2771   1.264       .  A
C2771      C2907   1.459       .  S
O2772     Cr2781   2.011       .  S
O2772      C2780   1.267       .  A
O2773     Cr2781   1.961       .  S
O2773      C2774   1.253       .  A
C2774      O2775   1.261       .  A
C2774      C2888   1.460       .  S
O2775     Cr2782   2.010       .  S
O2776     Cr2782   1.990       .  S
O2776      C2777   1.265       .  A
C2777      O2778   1.271       .  A
C2777      C2923   1.477       .  S
O2778     Cr2783   2.021       .  S
O2779     Cr2783   1.963       .  S
O2779      C2780   1.258       .  A
C2780      C2811   1.469       .  S
Cr2781     O2784   1.768       .  S
Cr2782     O2784   1.771       .  S
Cr2783     O2784   1.765       .  S
C2785      S2791   1.700       .  A
C2785      C2790   1.387       .  A
C2785      C2786   1.397       .  A
C2786      C2787   1.398       .  A
C2786      H2797   1.084       .  S
C2787      C2796   1.364       .  A
C2787      C2788   1.388       .  A
C2788      S2794   1.704       .  A
C2788      C2789   1.399       .  A
C2789      C2790   1.400       .  A
C2789      H2798   1.084       .  S
C2790      C2793   1.368       .  A
S2791      C2792   1.722       .  A
C2792      C2793   1.384       .  A
C2793      H2799   1.083       .  S
S2794      C2795   1.722       .  A
C2795      C2796   1.383       .  A
C2796      H2800   1.084       .  S
C2801      S2807   1.710       .  A
C2801      C2806   1.387       .  A
C2801      C2802   1.400       .  A
C2802      C2803   1.402       .  A
C2802      H2813   1.083       .  S
C2803      C2812   1.367       .  A
C2803      C2804   1.387       .  A
C2804      S2810   1.708       .  A
C2804      C2805   1.399       .  A
C2805      C2806   1.402       .  A
C2805      H2814   1.083       .  S
C2806      C2809   1.366       .  A
S2807      C2808   1.721       .  A
C2808      C2809   1.386       .  A
C2809      H2815   1.083       .  S
S2810      C2811   1.722       .  A
C2811      C2812   1.387       .  A
C2812      H2816   1.083       .  S
C2817      S2823   1.700       .  A
C2817      C2822   1.387       .  A
C2817      C2818   1.397       .  A
C2818      C2819   1.398       .  A
C2818      H2829   1.083       .  S
C2819      C2828   1.365       .  A
C2819      C2820   1.386       .  A
C2820      S2826   1.714       .  A
C2820      C2821   1.406       .  A
C2821      C2822   1.407       .  A
C2821      H2830   1.083       .  S
C2822      C2825   1.376       .  A
S2823      C2824   1.721       .  A
C2824      C2825   1.389       .  A
C2825      H2831   1.083       .  S
S2826      C2827   1.726       .  A
C2827      C2828   1.385       .  A
C2828      H2832   1.084       .  S
C2833      S2839   1.710       .  A
C2833      C2834   1.405   1_655  A
C2834      H2845   1.083   1_455  S
C2835      C2844   1.375       .  A
C2835      C2836   1.387       .  A
C2836      S2842   1.704       .  A
C2836      C2837   1.402       .  A
C2837      C2838   1.402       .  A
C2837      H2846   1.083       .  S
C2838      C2841   1.372       .  A
S2839      C2840   1.725       .  A
C2841      H2847   1.083       .  S
S2842      C2843   1.724       .  A
C2843      C2844   1.388       .  A
C2844      H2848   1.083       .  S
C2849      S2855   1.711       .  A
C2849      C2854   1.387       .  A
C2849      C2850   1.405       .  A
C2850      C2851   1.406       .  A
C2850      H2861   1.083       .  S
C2851      C2860   1.374       .  A
C2851      C2852   1.387       .  A
C2852      S2858   1.697       .  A
C2852      C2853   1.395       .  A
C2853      C2854   1.396       .  A
C2853      H2862   1.083       .  S
C2854      C2857   1.363       .  A
S2855      C2856   1.725       .  A
C2856      C2857   1.382       .  A
S2858      C2859   1.720       .  A
C2859      C2860   1.389       .  A
C2860      H2864   1.083       .  S
C2865      S2871   1.712       .  A
C2865      C2870   1.387       .  A
C2865      C2866   1.400       .  A
C2866      C2867   1.403       .  A
C2866      H2877   1.084       .  S
C2867      C2876   1.366       .  A
C2867      C2868   1.386       .  A
C2868      S2874   1.712       .  A
C2868      C2869   1.401       .  A
C2869      C2870   1.404       .  A
C2869      H2878   1.084       .  S
C2870      C2873   1.367       .  A
S2871      C2872   1.721       .  A
C2872      C2873   1.387       .  A
C2873      H2879   1.084       .  S
S2874      C2875   1.722       .  A
C2875      C2876   1.388       .  A
C2876      H2880   1.084       .  S
C2881      S2887   1.709       .  A
C2881      C2886   1.387       .  A
C2881      C2882   1.403       .  A
C2882      C2883   1.403       .  A
C2882      H2893   1.083       .  S
C2883      C2892   1.371       .  A
C2883      C2884   1.389       .  A
C2884      C2885   1.394       .  A
C2885      C2886   1.395       .  A
C2885      H2894   1.083       .  S
C2886      C2889   1.361       .  A
S2887      C2888   1.722       .  A
C2888      C2889   1.380       .  A
C2889      H2895   1.084       .  S
S2890      C2891   1.718   1_455  A
C2892      H2896   1.083       .  S
C2897      S2903   1.707       .  A
C2897      C2902   1.388       .  A
C2897      C2898   1.398       .  A
C2898      C2899   1.401       .  A
C2898      H2909   1.083       .  S
C2899      C2908   1.364       .  A
C2899      C2900   1.388       .  A
C2900      S2906   1.709       .  A
C2900      C2901   1.399       .  A
C2901      C2902   1.401       .  A
C2901      H2910   1.083       .  S
C2902      C2905   1.365       .  A
S2903      C2904   1.718       .  A
C2904      C2905   1.384       .  A
C2905      H2911   1.083       .  S
S2906      C2907   1.719       .  A
C2907      C2908   1.383       .  A
C2908      H2912   1.083       .  S
C2913      S2919   1.709       .  A
C2913      C2914   1.403       .  A
C2914      H2925   1.083       .  S
C2915      C2924   1.378       .  A
C2915      C2916   1.387       .  A
C2916      S2922   1.706       .  A
C2916      C2917   1.403       .  A
C2917      C2918   1.402       .  A
C2917      H2926   1.083       .  S
C2918      C2921   1.375       .  A
S2919      C2920   1.722   1_455  A
C2921      H2927   1.083       .  S
S2922      C2923   1.723       .  A
C2923      C2924   1.390       .  A
C2924      H2928   1.083       .  S
C2929      S2935   1.710       .  A
C2929      C2934   1.387       .  A
C2929      C2930   1.399       .  A
C2930      C2931   1.402       .  A
C2930      H2941   1.083       .  S
C2931      C2940   1.364       .  A
C2931      C2932   1.387       .  A
C2932      S2938   1.709       .  A
C2933      H2942   1.083   1_455  S
C2936      C2937   1.384       .  A
C2937      H2943   1.084       .  S
S2938      C2939   1.720       .  A
C2939      C2940   1.385       .  A
C2940      H2944   1.084       .  S
C2945      S2951   1.707       .  A
C2945      C2950   1.387       .  A
C2945      C2946   1.399       .  A
C2946      C2947   1.401       .  A
C2946      H2957   1.084       .  S
C2947      C2948   1.386       .  A
C2948      S2954   1.713       .  A
C2948      C2949   1.403       .  A
C2949      C2950   1.405       .  A
C2949      H2958   1.083       .  S
C2950      C2953   1.371       .  A
S2951      C2952   1.722       .  A
C2952      C2953   1.389       .  A
C2953      H2959   1.083       .  S
C2955      C2956   1.387       .  A
C2956      H2960   1.084       .  S
C2961      S2967   1.711       .  A
C2961      C2966   1.387       .  A
C2961      C2962   1.406       .  A
C2962      C2963   1.406       .  A
C2962      H2973   1.083       .  S
C2963      C2964   1.387       .  A
C2964      C2965   1.400       .  A
C2965      C2966   1.400       .  A
C2965      H2974   1.083       .  S
C2966      C2969   1.370       .  A
S2967      C2968   1.725       .  A
C2968      C2969   1.384       .  A
C2969      H2975   1.083       .  S
S2970      C2971   1.724   1_545  A
C2971      C2972   1.390       .  A
C2972      H2976   1.083       .  S
C2977      S2983   1.713       .  A
C2977      C2982   1.386       .  A
C2977      C2978   1.406       .  A
C2978      C2979   1.407       .  A
C2978      H2989   1.083       .  S
C2979      C2988   1.376       .  A
C2979      C2980   1.387       .  A
C2980      S2986   1.708       .  A
C2980      C2981   1.402       .  A
C2981      C2982   1.403       .  A
C2981      H2990   1.083       .  S
C2982      C2985   1.372       .  A
S2983      C2984   1.725       .  A
C2984      C2985   1.387       .  A
C2985      H2991   1.083       .  S
S2986      C2987   1.723       .  A
C2987      C2988   1.389       .  A
C2988      H2992   1.083       .  S
C2993      S2999   1.711       .  A
C2993      C2998   1.387       .  A
C2993      C2994   1.402       .  A
C2994      C2995   1.404       .  A
C2994      H3005   1.084       .  S
C2995      C3004   1.370       .  A
C2995      C2996   1.387       .  A
C2996      S3002   1.709       .  A
C2996      C2997   1.401       .  A
C2997      C2998   1.402       .  A
C2997      H3006   1.084       .  S
C2998      C3001   1.368       .  A
S2999      C3000   1.723       .  A
C3000      C3001   1.388       .  A
C3001      H3007   1.084       .  S
S3002      C3003   1.723       .  A
C3003      C3004   1.388       .  A
C3004      H3008   1.084       .  S
C3009      S3015   1.703       .  A
C3009      C3014   1.388       .  A
C3009      C3010   1.397       .  A
C3010      C3011   1.399       .  A
C3010      H3021   1.084       .  S
C3011      C3020   1.363       .  A
C3011      C3012   1.388       .  A
C3012      S3018   1.706       .  A
C3012      C3013   1.398       .  A
C3013      C3014   1.400       .  A
C3013      H3022   1.084       .  S
C3014      C3017   1.365       .  A
S3015      C3016   1.720       .  A
C3016      C3017   1.384       .  A
C3017      H3023   1.084       .  S
S3018      C3019   1.719       .  A
C3019      C3020   1.382       .  A
C3020      H3024   1.084       .  S
C3025      S3031   1.702       .  A
C3025      C3030   1.387       .  A
C3025      C3026   1.391       .  A
C3026      C3027   1.395       .  A
C3026      H3037   1.084       .  S
C3027      C3036   1.354       .  A
C3027      C3028   1.385       .  A
C3028      S3034   1.723       .  A
C3028      C3029   1.407       .  A
C3029      C3030   1.411       .  A
C3029      H3038   1.083       .  S
C3030      C3033   1.372       .  A
S3031      C3032   1.716       .  A
C3032      C3033   1.392       .  A
C3033      H3039   1.083       .  S
S3034      C3035   1.727       .  A
C3035      C3036   1.385       .  A
C3036      H3040   1.084       .  S
C3041      C3046   1.387       .  A
C3041      C3042   1.404       .  A
C3042      C3043   1.405       .  A
C3042      H3053   1.083       .  S
C3043      C3052   1.375       .  A
C3043      C3044   1.387       .  A
C3044      S3050   1.711       .  A
C3044      C3045   1.405       .  A
C3045      C3046   1.405       .  A
C3045      H3054   1.083       .  S
C3046      C3049   1.376   1_655  A
S3047      C3048   1.724       .  A
C3049      H3055   1.083       .  S
S3050      C3051   1.723       .  A
C3051      C3052   1.387       .  A
C3052      H3056   1.083       .  S
C3057      S3063   1.709       .  A
C3057      C3062   1.387       .  A
C3057      C3058   1.400       .  A
C3058      C3059   1.402       .  A
C3058      H3069   1.084   1_655  S
C3059      C3060   1.386       .  A
C3060      S3066   1.714       .  A
C3060      C3061   1.402       .  A
C3061      C3062   1.405       .  A
C3061      H3070   1.083       .  S
C3062      C3065   1.370       .  A
S3063      C3064   1.722       .  A
C3064      C3065   1.388       .  A
C3065      H3071   1.083       .  S
C3067      C3068   1.385       .  A
C3068      H3072   1.084       .  S
C3073      S3079   1.717       .  A
C3073      C3078   1.386       .  A
C3073      C3074   1.404       .  A
C3074      C3075   1.407       .  A
C3074      H3085   1.083       .  S
C3075      C3084   1.370       .  A
C3075      C3076   1.387       .  A
C3076      S3082   1.710       .  A
C3076      C3077   1.399       .  A
C3077      C3078   1.402       .  A
C3080      C3081   1.390       .  A
C3081      H3087   1.083       .  S
S3082      C3083   1.721       .  A
C3083      C3084   1.390       .  A
C3084      H3088   1.083       .  S
C3089      S3095   1.708       .  A
C3089      C3094   1.387       .  A
C3089      C3090   1.401       .  A
C3090      C3091   1.402       .  A
C3090      H3101   1.083       .  S
C3091      C3092   1.387       .  A
C3092      C3093   1.402       .  A
C3093      C3094   1.403       .  A
C3093      H3102   1.083   1_565  S
C3094      C3097   1.370       .  A
S3095      C3096   1.721       .  A
C3096      C3097   1.385       .  A
C3097      H3103   1.083       .  S
S3098      C3099   1.722       .  A
C3099      C3100   1.386       .  A
C3100      H3104   1.083       .  S
C3105      S3111   1.715       .  A
C3105      C3110   1.386       .  A
C3105      C3106   1.406       .  A
C3106      C3107   1.407       .  A
C3106      H3117   1.083       .  S
C3107      C3116   1.375       .  A
C3107      C3108   1.387       .  A
C3108      S3114   1.706       .  A
C3108      C3109   1.399       .  A
C3109      C3110   1.401       .  A
C3109      H3118   1.083       .  S
C3110      C3113   1.368       .  A
S3111      C3112   1.727       .  A
C3112      C3113   1.387       .  A
C3113      H3119   1.083       .  S
S3114      C3115   1.720       .  A
C3115      C3116   1.390       .  A
C3116      H3120   1.083       .  S
C3121      S3127   1.707       .  A
C3122      C3123   1.402       .  A
C3123      C3132   1.371       .  A
C3123      C3124   1.387       .  A
C3124      S3130   1.711       .  A
C3124      C3125   1.404       .  A
C3125      C3126   1.405       .  A
C3125      H3134   1.083       .  S
C3126      C3129   1.374   1_565  A
S3127      C3128   1.722       .  A
C3129      H3135   1.083       .  S
S3130      C3131   1.723       .  A
C3131      C3132   1.386       .  A
C3132      H3136   1.084       .  S
C3137      S3143   1.711       .  A
C3137      C3142   1.387       .  A
C3137      C3138   1.402       .  A
C3138      C3139   1.404       .  A
C3138      H3149   1.083       .  S
C3139      C3148   1.370       .  A
C3139      C3140   1.386       .  A
C3140      S3146   1.711       .  A
C3140      C3141   1.403       .  A
C3141      C3142   1.404       .  A
C3141      H3150   1.083       .  S
C3142      C3145   1.371       .  A
S3143      C3144   1.721       .  A
C3144      C3145   1.386       .  A
C3145      H3151   1.083       .  S
S3146      C3147   1.724       .  A
C3147      C3148   1.389       .  A
C3148      H3152   1.083       .  S
C3153      S3159   1.713       .  A
C3153      C3158   1.386       .  A
C3153      C3154   1.403       .  A
C3154      C3155   1.405       .  A
C3154      H3165   1.083       .  S
C3155      C3164   1.369       .  A
C3155      C3156   1.387       .  A
C3156      S3162   1.706       .  A
C3156      C3157   1.397       .  A
C3157      C3158   1.400       .  A
C3157      H3166   1.084       .  S
C3158      C3161   1.364       .  A
S3159      C3160   1.724       .  A
C3160      C3161   1.386       .  A
C3161      H3167   1.084       .  S
S3162      C3163   1.720       .  A
C3163      C3164   1.389       .  A
C3164      H3168   1.083       .  S
C3169      S3175   1.705       .  A
C3169      C3174   1.388       .  A
C3169      C3170   1.397       .  A
C3170      C3171   1.399       .  A
C3170      H3181   1.083       .  S
C3171      C3180   1.363       .  A
C3171      C3172   1.387       .  A
C3172      S3178   1.711       .  A
C3172      C3173   1.401       .  A
C3173      C3174   1.403       .  A
C3173      H3182   1.083       .  S
C3174      C3177   1.367       .  A
S3175      C3176   1.718       .  A
C3176      C3177   1.383       .  A
C3177      H3183   1.083       .  S
S3178      C3179   1.719       .  A
C3179      C3180   1.383       .  A
C3180      H3184   1.083       .  S
C3185      S3191   1.715       .  A
C3185      C3190   1.386       .  A
C3185      C3186   1.406       .  A
C3186      C3187   1.407       .  A
C3187      C3188   1.388       .  A
C3188      S3194   1.703       .  A
C3188      C3189   1.397       .  A
C3189      C3190   1.399       .  A
C3189      H3198   1.084       .  S
C3190      C3193   1.366       .  A
S3191      C3192   1.725       .  A
C3192      C3193   1.385       .  A
C3193      H3199   1.084       .  S
C3195      C3196   1.385       .  A
C3196      H3200   1.084       .  S
C3201      S3207   1.707       .  A
C3201      C3206   1.387       .  A
C3202      C3203   1.399       .  A
C3202      H3213   1.084       .  S
C3203      C3212   1.367       .  A
C3204      S3210   1.708       .  A
C3204      C3205   1.400       .  A
C3205      C3206   1.402       .  A
C3205      H3214   1.084       .  S
C3206      C3209   1.368       .  A
S3207      C3208   1.722       .  A
C3208      C3209   1.386       .  A
C3209      H3215   1.083       .  S
C3211      C3212   1.381   1_565  A
C3212      H3216   1.084       .  S
C3217      S3223   1.716       .  A
C3217      C3222   1.386       .  A
C3217      C3218   1.408       .  A
C3218      C3219   1.408       .  A
C3218      H3229   1.083       .  S
C3219      C3228   1.378       .  A
C3219      C3220   1.387       .  A
C3220      S3226   1.703       .  A
C3220      C3221   1.399       .  A
C3221      C3222   1.400       .  A
C3221      H3230   1.084       .  S
C3224      C3225   1.386   1_565  A
C3225      H3231   1.084   1_545  S
S3226      C3227   1.722       .  A
C3227      C3228   1.389       .  A
C3228      H3232   1.083       .  S
C3233      S3239   1.714       .  A
C3233      C3238   1.387       .  A
C3233      C3234   1.403       .  A
C3234      C3235   1.405       .  A
C3234      H3245   1.083       .  S
C3235      C3244   1.369       .  A
C3235      C3236   1.387       .  A
C3236      S3242   1.710       .  A
C3236      C3237   1.400       .  A
C3237      C3238   1.403       .  A
C3237      H3246   1.083       .  S
C3238      C3241   1.367       .  A
S3239      C3240   1.721       .  A
C3240      C3241   1.384       .  A
C3241      H3247   1.084       .  S
S3242      C3243   1.720       .  A
C3243      C3244   1.387       .  A
C3244      H3248   1.083       .  S
C3249      S3255   1.706       .  A
C3249      C3254   1.387       .  A
C3249      C3250   1.404       .  A
C3250      C3251   1.403       .  A
C3250      H3261   1.083       .  S
C3251      C3260   1.374       .  A
C3251      C3252   1.387       .  A
C3252      S3258   1.702       .  A
C3252      C3253   1.400       .  A
C3253      C3254   1.400       .  A
C3253      H3262   1.083       .  S
C3254      C3257   1.371       .  A
S3255      C3256   1.725       .  A
C3256      C3257   1.384       .  A
C3257      H3263   1.083       .  S
S3258      C3259   1.723       .  A
C3259      C3260   1.388       .  A
C3260      H3264   1.083       .  S
C3265      C3270   1.386       .  A
C3265      C3266   1.406       .  A
C3266      C3267   1.408       .  A
C3266      H3277   1.083       .  S
C3267      C3276   1.377       .  A
C3267      C3268   1.386       .  A
C3268      S3274   1.714       .  A
C3268      C3269   1.405       .  A
C3269      C3270   1.406       .  A
C3269      H3278   1.083       .  S
S3271      C3272   1.725       .  A
C3272      C3273   1.388       .  A
C3273      H3279   1.084       .  S
S3274      C3275   1.724       .  A
C3275      C3276   1.390       .  A
C3276      H3280   1.083       .  S
C3281      S3287   1.717       .  A
C3281      C3286   1.386       .  A
C3281      C3282   1.409       .  A
C3282      C3283   1.409       .  A
C3282      H3293   1.082       .  S
C3283      C3292   1.378       .  A
C3283      C3284   1.387       .  A
C3284      S3290   1.700       .  A
C3284      C3285   1.396       .  A
C3285      C3286   1.398       .  A
C3285      H3294   1.083       .  S
C3286      C3289   1.365       .  A
S3287      C3288   1.727       .  A
C3288      C3289   1.385       .  A
C3289      H3295   1.083       .  S
S3290      C3291   1.721       .  A
C3291      C3292   1.391       .  A
C3292      H3296   1.082       .  S
C3297      S3303   1.700       .  A
C3297      C3302   1.387       .  A
C3297      C3298   1.397       .  A
C3298      C3299   1.398       .  A
C3298      H3309   1.083       .  S
C3299      C3308   1.366       .  A
C3299      C3300   1.387       .  A
C3300      S3306   1.703       .  A
C3300      C3301   1.400       .  A
C3301      C3302   1.400       .  A
C3301      H3310   1.083       .  S
C3302      C3305   1.367       .  A
S3303      C3304   1.721       .  A
C3304      C3305   1.385       .  A
C3305      H3311   1.083       .  S
S3306      C3307   1.723       .  A
C3307      C3308   1.383       .  A
C3313      S3319   1.702       .  A
C3313      C3318   1.388       .  A
C3313      C3314   1.402       .  A
C3314      C3315   1.401       .  A
C3314      H3325   1.083       .  S
C3315      C3324   1.374       .  A
C3315      C3316   1.388       .  A
C3316      S3322   1.700       .  A
C3316      C3317   1.401       .  A
C3317      C3318   1.400       .  A
C3317      H3326   1.083       .  S
C3318      C3321   1.373       .  A
S3319      C3320   1.725       .  A
C3320      C3321   1.385       .  A
C3321      H3327   1.083       .  S
S3322      C3323   1.724       .  A
C3323      C3324   1.385       .  A
C3324      H3328   1.083       .  S
C3329      C3334   1.387       .  A
C3329      C3330   1.399       .  A
C3330      C3331   1.402       .  A
C3331      C3340   1.364       .  A
C3331      C3332   1.388   1_556  A
C3332      S3338   1.705       .  A
C3332      C3333   1.395       .  A
C3333      C3334   1.398   1_554  A
C3333      H3342   1.084   1_655  S
C3334      C3337   1.360   1_655  A
S3335      C3336   1.721       .  A
C3337      H3343   1.084       .  S
S3338      C3339   1.716       .  A
C3339      C3340   1.383   1_554  A
C3340      H3344   1.084       .  S
C3345      S3351   1.702       .  A
C3345      C3350   1.388       .  A
C3345      C3346   1.399       .  A
C3346      C3347   1.400       .  A
C3346      H3357   1.084   1_554  S
C3347      C3356   1.368   1_554  A
C3347      C3348   1.387       .  A
C3348      S3354   1.711       .  A
C3348      C3349   1.404       .  A
C3349      C3350   1.405       .  A
C3349      H3358   1.084       .  S
C3350      C3353   1.375       .  A
S3351      C3352   1.721       .  A
C3352      C3353   1.386       .  A
C3353      H3359   1.083       .  S
S3354      C3355   1.724   1_554  A
C3355      C3356   1.386       .  A
C3356      H3360   1.084       .  S
