geometry optimzed in LAMMPS
_audit_creation_date              2020-12-01 
_audit_creation_method            'lammps2cif' 
_symmetry_space_group_name_H-M    'P1' 
_symmetry_Int_Tables_number       1 
_symmetry_cell_setting            triclinic 
loop_ 
_symmetry_equiv_pos_as_xyz 
  x,y,z 
_cell_length_a                    73.05041221 
_cell_length_b                    73.12282687473588 
_cell_length_c                    30.004209806726315 
_cell_angle_alpha                 90.11302480819276 
_cell_angle_beta                  89.5003736868328 
_cell_angle_gamma                 89.73917449549259 
loop_ 
_atom_site_label 
_atom_site_type_symbol 
_atom_site_fract_x 
_atom_site_fract_y 
_atom_site_fract_z 
_atom_site_charge 
O1          O  0.37918172  0.22503080  0.06751427    -0.81600
C2          C  0.38842513  0.26935938  0.91610430     0.97700
O3          O  0.37322231  0.26445211  0.93244245    -0.70800
O4          O  0.37744466  0.22934948  0.93643992    -0.74300
Al5        Al  0.36835440  0.24641446  0.97751123     1.49000
C6          C  0.38168609  0.21344942  0.94830156     0.93000
O7          O  0.42106027  0.22958298  0.99277658    -0.80600
O8          O  0.40133514  0.26975640  0.06887339    -0.74100
Al9        Al  0.39952069  0.22827169  0.02847461     1.90100
O10         O  0.42580749  0.25899841  0.00201993    -0.73200
O11         O  0.37914014  0.28427458  0.00770059    -0.73000
O12         O  0.40240506  0.27023230  0.94060638    -0.78700
O13         O  0.35770595  0.26357671  0.01637528    -0.76900
O14         O  0.38979075  0.24799510  0.00382107    -1.13000
O15         O  0.35823361  0.22767719  0.01614383    -0.72200
C16         C  0.36315545  0.22215023  0.05414729     0.98500
C17         C  0.43170016  0.24314911  0.99211581     0.94900
Al18       Al  0.40134147  0.26927356  0.00479957     1.55600
O19         O  0.38952665  0.21081455  0.98539204    -0.76900
C20         C  0.36273989  0.27999376  0.01743817     0.99000
C21         C  0.40749586  0.25700801  0.09312663     0.93900
O22         O  0.41078084  0.24132589  0.07671405    -0.82200
O23         O  0.41209058  0.22926536  0.43342443    -0.81600
C24         C  0.39238140  0.25979493  0.59437808     0.97700
O25         O  0.40519062  0.26114235  0.56600124    -0.70800
O26         O  0.42702619  0.25042657  0.50134213    -0.74300
Al27       Al  0.40236442  0.25834935  0.50304153     1.49000
C28         C  0.43500558  0.23616358  0.51440733     0.93000
O29         O  0.39644312  0.19991286  0.53338652    -0.80600
O30         O  0.36174926  0.21504684  0.50405335    -0.74100
Al31       Al  0.40359596  0.21670479  0.48651953     1.90100
O32         O  0.38144055  0.21722459  0.58101473    -0.73200
O33         O  0.35854401  0.25148163  0.50414347    -0.73000
O34         O  0.37721942  0.25274361  0.58386327    -0.78700
O35         O  0.38009643  0.27210356  0.50345755    -0.76900
O36         O  0.39236234  0.23635898  0.50972153    -1.13000
O37         O  0.40065475  0.25711809  0.43960870    -0.72200
C38         C  0.40771074  0.24449317  0.41605432     0.98500
C39         C  0.38781294  0.20186292  0.56986785     0.94900
Al40       Al  0.37148823  0.23431436  0.54036723     1.55600
O41         O  0.42626452  0.22130687  0.51765383    -0.76900
C42         C  0.36346423  0.26792396  0.50000937     0.99000
C43         C  0.36704973  0.20660896  0.46938249     0.93900
O44         O  0.38278953  0.20939951  0.45303127    -0.82200
O45         O  0.58586800  0.23285981  0.06935650    -0.81600
C46         C  0.60849939  0.25495932  0.90378555     0.97700
O47         O  0.59584178  0.25848634  0.93154291    -0.70800
O48         O  0.57296918  0.25110932  0.99674526    -0.74300
Al49       Al  0.59804315  0.25800190  0.99486494     1.49000
C50         C  0.56475862  0.23653487  0.98688516     0.93000
O51         O  0.60225006  0.19799533  0.98254143    -0.80600
O52         O  0.63678424  0.21350471  0.00813178    -0.74100
Al53       Al  0.59500452  0.21763050  0.02196892     1.90100
O54         O  0.61767357  0.21174398  0.92976967    -0.73200
O55         O  0.64159361  0.24914928  0.99528688    -0.73000
O56         O  0.62294955  0.24673874  0.91568928    -0.78700
O57         O  0.62074915  0.27058488  0.99217677    -0.76900
O58         O  0.60714000  0.23540354  0.99383429    -1.13000
O59         O  0.59945540  0.25926912  0.05891732    -0.72200
C60         C  0.59146349  0.24799209  0.08442286     0.98500
C61         C  0.61094245  0.19739958  0.94605529     0.94900
Al62       Al  0.62800966  0.23071693  0.96484493     1.55600
O63         O  0.57319061  0.22134940  0.98737981    -0.76900
C64         C  0.63722269  0.26584666  0.99621636     0.99000
C65         C  0.63088076  0.20790597  0.04550533     0.93900
O66         O  0.61505751  0.21212915  0.05934212    -0.82200
O67         O  0.61876632  0.22963763  0.42781812    -0.81600
C68         C  0.61144128  0.27221411  0.58281740     0.97700
O69         O  0.62649862  0.26812145  0.56420395    -0.70800
O70         O  0.62361640  0.23299427  0.55823834    -0.74300
Al71       Al  0.63102822  0.25073834  0.51741076     1.49000
C72         C  0.61867779  0.21726154  0.54670303     0.93000
O73         O  0.57859778  0.23313090  0.50790163    -0.80600
O74         O  0.59652888  0.27413618  0.43197327    -0.74100
Al75       Al  0.59925559  0.23242916  0.46944382     1.90100
O76         O  0.57279818  0.26242448  0.49977426    -0.73200
O77         O  0.61904650  0.28892049  0.49281718    -0.73000
O78         O  0.59697219  0.27335331  0.56001120    -0.78700
O79         O  0.64020706  0.26841421  0.47830677    -0.76900
O80         O  0.60906804  0.25208117  0.49418145    -1.13000
O81         O  0.64065975  0.23291024  0.47653077    -0.72200
C82         C  0.63516637  0.22737332  0.43910115     0.98500
C83         C  0.56756802  0.24641164  0.51006712     0.94900
Al84       Al  0.59710032  0.27322279  0.49582171     1.55600
O85         O  0.61028567  0.21482804  0.51031245    -0.76900
C86         C  0.63538106  0.28487411  0.48124049     0.99000
C87         C  0.59048004  0.26147770  0.40730051     0.93900
O88         O  0.58684350  0.24585913  0.42338057    -0.82200
O89         O  0.21177698  0.38789006  0.95219763    -0.81600
C90         C  0.25706138  0.40133450  0.10092769     0.97700
O91         O  0.24963468  0.38631500  0.09097275    -0.70800
O92         O  0.21408779  0.38903369  0.08352810    -0.74300
Al93       Al  0.23274071  0.37931992  0.04579351     1.49000
C94         C  0.19870310  0.39371376  0.06888969     0.93000
O95         O  0.21664210  0.43162467  0.02161147    -0.80600
O96         O  0.25590893  0.40940740  0.94523171    -0.74100
Al97       Al  0.21506643  0.40927297  0.98819301     1.90100
O98         O  0.24613729  0.43539965  0.00965127    -0.73200
O99         O  0.27091551  0.38943511  0.00911070    -0.73000
O100        O  0.25854407  0.41396153  0.07249356    -0.78700
O101        O  0.25119702  0.36698521  0.01297556    -0.76900
O102        O  0.23471957  0.39984058  0.01452354    -1.13000
O103        O  0.21528486  0.36798056  0.00639559    -0.72200
C104        C  0.20966350  0.37195025  0.96773158     0.98500
C105        C  0.23069779  0.44171861  0.02169511     0.94900
Al106      Al  0.25616700  0.41113192  0.00934596     1.55600
O107        O  0.19732543  0.40058058  0.03055596    -0.76900
C108        C  0.26733128  0.37258625  0.00761491     0.99000
C109        C  0.24309033  0.41559873  0.92144685     0.93900
O110        O  0.22786464  0.41973846  0.93892988    -0.82200
O111        O  0.23188487  0.41205738  0.57989226    -0.81600
C112        C  0.26288433  0.39231640  0.41926219     0.97700
O113        O  0.26379616  0.40551933  0.44633905    -0.70800
O114        O  0.25266240  0.42763800  0.51031660    -0.74300
Al115      Al  0.26117147  0.40275595  0.50961496     1.49000
C116        C  0.23766480  0.43475490  0.49855344     0.93000
O117        O  0.20290484  0.39612205  0.48014254    -0.80600
O118        O  0.21676667  0.36269074  0.50735105    -0.74100
Al119      Al  0.21947101  0.40333902  0.52746931     1.90100
O120        O  0.22176654  0.38334932  0.43203137    -0.73200
O121        O  0.25290767  0.35932328  0.51229771    -0.73000
O122        O  0.25668716  0.37705078  0.43185679    -0.78700
O123        O  0.27482813  0.37974065  0.50970145    -0.76900
O124        O  0.23925816  0.39271840  0.50397746    -1.13000
O125        O  0.25995239  0.40111403  0.57297219    -0.72200
C126        C  0.24712093  0.40760019  0.59691782     0.98500
C127        C  0.20597580  0.38887068  0.44237691     0.94900
Al128      Al  0.23720854  0.37217817  0.47354522     1.55600
O129        O  0.22335590  0.42531177  0.49618038    -0.76900
C130        C  0.26964001  0.36331701  0.51493307     0.99000
C131        C  0.20902006  0.36760339  0.54330883     0.93900
O132        O  0.21308687  0.38256978  0.56140507    -0.82200
O133        O  0.23718222  0.59287264  0.93394932    -0.81600
C134        C  0.26477005  0.61763960  0.09297603     0.97700
O135        O  0.26679903  0.60389292  0.06777199    -0.70800
O136        O  0.25616874  0.57985862  0.00814345    -0.74300
Al137      Al  0.26510300  0.60460788  0.00373555     1.49000
C138        C  0.24086820  0.57329181  0.02025061     0.93000
O139        O  0.20594757  0.61354925  0.02565299    -0.80600
O140        O  0.22147664  0.64524651  0.99489968    -0.74100
Al141      Al  0.22383961  0.60408762  0.98250659     1.90100
O142        O  0.22382905  0.62663361  0.07435985    -0.73200
O143        O  0.25687735  0.64789362  0.99402872    -0.73000
O144        O  0.25876150  0.63249906  0.07739625    -0.78700
O145        O  0.27887413  0.62754467  0.99949240    -0.76900
O146        O  0.24316371  0.61497005  0.00625525    -1.13000
O147        O  0.26491281  0.60416255  0.93950709    -0.72200
C148        C  0.25243107  0.59697280  0.91627742     0.98500
C149        C  0.20823316  0.62131482  0.06301949     0.94900
Al150      Al  0.24045639  0.63633420  0.03299867     1.55600
O151        O  0.22647654  0.58294404  0.01895089    -0.76900
C152        C  0.27355150  0.64375850  0.99117071     0.99000
C153        C  0.21657690  0.64012574  0.95661051     0.93900
O154        O  0.21955920  0.62400250  0.94341179    -0.82200
O155        O  0.20560213  0.61809536  0.56884920    -0.81600
C156        C  0.24868503  0.60847531  0.41295252     0.97700
O157        O  0.24099092  0.62317816  0.42552250    -0.70800
O158        O  0.20558189  0.61941124  0.43797348    -0.74300
Al159      Al  0.22458727  0.62907810  0.47387177     1.49000
C160        C  0.19055101  0.61442835  0.45463695     0.93000
O161        O  0.21083380  0.57593856  0.49662607    -0.83800
O162        O  0.25077693  0.59858962  0.56768531    -0.74100
Al163      Al  0.20908591  0.59768267  0.53136308     1.90100
O164        O  0.24060695  0.57306921  0.50429205    -0.73200
O165        O  0.26363518  0.61932364  0.50219342    -0.73000
O166        O  0.25072213  0.59531844  0.43980115    -0.78700
O167        O  0.24341197  0.64151009  0.50531405    -0.76900
O168        O  0.22780822  0.60813548  0.50282874    -1.13000
O169        O  0.20709027  0.63905044  0.51647360    -0.72200
C170        C  0.20140158  0.63368817  0.55431688     0.98500
C171        C  0.22519055  0.56625289  0.49541971     0.94900
Al172      Al  0.24967217  0.59742913  0.50357038     1.55600
O173        O  0.19015403  0.60645972  0.49196114    -0.76900
C174        C  0.25982547  0.63605946  0.50644765     0.99000
C175        C  0.23894218  0.59158252  0.59347857     0.93900
O176        O  0.22339301  0.58720617  0.57867765    -0.82200
O177        O  0.78775854  0.61907053  0.93603482    -0.81600
C178        C  0.74122635  0.61509441  0.08870712     0.97700
O179        O  0.74792479  0.62943706  0.07190988    -0.70800
O180        O  0.78344812  0.62533068  0.06459354    -0.74300
Al181      Al  0.76509122  0.63320541  0.02448529     1.49000
C182        C  0.79862568  0.61875857  0.05211750     0.93000
O183        O  0.77933052  0.57811164  0.01254260    -0.80600
O184        O  0.74049992  0.59978548  0.93725143    -0.74100
Al185      Al  0.78212007  0.59957426  0.97606260     1.90100
O186        O  0.74965348  0.57616479  0.00464710    -0.73200
O187        O  0.72663314  0.62235506  0.99726128    -0.73000
O188        O  0.73967864  0.60069805  0.06543213    -0.78700
O189        O  0.74690394  0.64388721  0.98713298    -0.76900
O190        O  0.76281422  0.61111930  0.00057431    -1.13000
O191        O  0.78295979  0.64159050  0.98302760    -0.72200
C192        C  0.79037596  0.63538380  0.94800094     0.98500
C193        C  0.76477284  0.56884589  0.01396295     0.94900
Al194      Al  0.74093245  0.60053864  0.00108063     1.55600
O195        O  0.79981105  0.60883325  0.01763394    -0.76900
C196        C  0.73053599  0.63847234  0.98608926     0.99000
C197        C  0.75297115  0.59310868  0.91247970     0.93900
O198        O  0.76844914  0.58891202  0.92830507    -0.82200
O199        O  0.75793637  0.59617518  0.57102792    -0.81600
C200        C  0.72869150  0.61706332  0.41167922     0.97700
O201        O  0.72739003  0.60377584  0.43838886    -0.70800
O202        O  0.73923146  0.58127239  0.50001843    -0.74300
Al203      Al  0.72912707  0.60561508  0.50190460     1.49000
C204        C  0.75465284  0.57497855  0.48771332     0.93000
O205        O  0.78737341  0.61676465  0.47674267    -0.80600
O206        O  0.77025372  0.64855551  0.50703505    -0.74100
Al207      Al  0.77037476  0.60711855  0.52100101     1.90100
O208        O  0.76880148  0.62909927  0.42838887    -0.73200
O209        O  0.73425855  0.64955129  0.50811442    -0.73000
O210        O  0.73351400  0.63262804  0.42564021    -0.78700
O211        O  0.71405906  0.62754977  0.50437007    -0.76900
O212        O  0.75037262  0.61701548  0.49767320    -1.13000
O213        O  0.72967433  0.60643030  0.56581552    -0.72200
C214        C  0.74265264  0.60012089  0.58901374     0.98500
C215        C  0.78471110  0.62468195  0.43983635     0.94900
Al216      Al  0.75160204  0.63826409  0.46963092     1.55600
O217        O  0.76851352  0.58526677  0.48618251    -0.76900
C218        C  0.71798343  0.64413074  0.51194350     0.99000
C219        C  0.77637829  0.64362117  0.54443273     0.93900
O220        O  0.77410028  0.62756074  0.55841633    -0.82200
O221        O  0.76388980  0.41225530  0.92694143    -0.81600
C222        C  0.73148945  0.39844474  0.09010020     0.97700
O223        O  0.73142350  0.41097333  0.06121758    -0.70800
O224        O  0.74586347  0.43085399  0.99724860    -0.74300
Al225      Al  0.73405158  0.40724015  0.99818006     1.49000
C226        C  0.76186559  0.43606881  0.00735410     0.93000
O227        O  0.79138795  0.39289386  0.02397093    -0.80600
O228        O  0.77289130  0.36166957  0.00291118    -0.74100
Al229      Al  0.77522810  0.40195595  0.97850617     1.90100
O230        O  0.77251110  0.38393584  0.07663875    -0.73200
O231        O  0.73733263  0.36314465  0.00164108    -0.73000
O232        O  0.73666575  0.38249796  0.07977447    -0.78700
O233        O  0.71781722  0.38598173  0.99847661    -0.76900
O234        O  0.75464598  0.39462904  0.00475370    -1.13000
O235        O  0.73493602  0.40492304  0.93423935    -0.72200
C236        C  0.74835606  0.40962925  0.90994993     0.98500
C237        C  0.78857190  0.38690641  0.06294447     0.94900
Al238      Al  0.75475223  0.37449226  0.03753373     1.55600
O239        O  0.77500861  0.42482269  0.00846533    -0.76900
C240        C  0.72136330  0.36899931  0.99529570     0.99000
C241        C  0.77900931  0.36440152  0.96406191     0.93900
O242        O  0.77737741  0.37981848  0.94567844    -0.82200
O243        O  0.79289059  0.38970892  0.55101469    -0.81600
C244        C  0.74342633  0.39912645  0.40760323     0.97700
O245        O  0.75128624  0.38450021  0.41918744    -0.70800
O246        O  0.78703261  0.38771784  0.42224338    -0.74300
Al247      Al  0.76910891  0.37875059  0.46302288     1.49000
C248        C  0.80240175  0.39364261  0.43410824     0.93000
O249        O  0.78384844  0.43286344  0.48317662    -0.80600
O250        O  0.74635394  0.40989555  0.56119164    -0.74100
Al251      Al  0.78703212  0.41045799  0.51568619     1.90100
O252        O  0.75440465  0.43543757  0.49611107    -0.73200
O253        O  0.73120389  0.38916316  0.49974967    -0.73000
O254        O  0.74251050  0.41270492  0.43382330    -0.78700
O255        O  0.75121037  0.36679695  0.49933350    -0.76900
O256        O  0.76724815  0.39999326  0.49200357    -1.13000
O257        O  0.78761267  0.36861663  0.50066447    -0.72200
C258        C  0.79539531  0.37376139  0.53595381     0.98500
C259        C  0.76946928  0.44253082  0.48487550     0.94900
Al260      Al  0.74547519  0.41093156  0.49741357     1.55600
O261        O  0.80404022  0.40225050  0.47040995    -0.76900
C262        C  0.73492459  0.37241542  0.50377379     0.99000
C263        C  0.75922011  0.41591722  0.58496250     0.93900
O264        O  0.77446941  0.42006374  0.56741398    -0.82200
O265        O  0.40988367  0.77972084  0.07688535    -0.81600
C266        C  0.38972013  0.75321929  0.91237948     0.97700
O267        O  0.40277301  0.75126586  0.93942904    -0.70800
O268        O  0.42476663  0.76128802  0.00410572    -0.74300
Al269      Al  0.40010899  0.75301106  0.00300271     1.49000
C270        C  0.43232308  0.77633262  0.99506718     0.93000
O271        O  0.39300391  0.81241122  0.98720120    -0.80600
O272        O  0.35899507  0.79633778  0.01160392    -0.74100
Al273      Al  0.40064288  0.79376136  0.02819096     1.90100
O274        O  0.37958211  0.79719203  0.93401047    -0.73200
O275        O  0.35589728  0.75991460  0.00155204    -0.73000
O276        O  0.37532624  0.76180479  0.92348103    -0.78700
O277        O  0.37801964  0.73962560  0.00161555    -0.76900
O278        O  0.38992789  0.77509785  0.00029772    -1.13000
O279        O  0.39809064  0.75253066  0.06702009    -0.72200
C280        C  0.40454247  0.76462414  0.09257675     0.98500
C281        C  0.38505591  0.81208546  0.95005503     0.94900
Al282      Al  0.36921311  0.77853046  0.97029533     1.55600
O283        O  0.42317282  0.79107599  0.99545598    -0.76900
C284        C  0.36124626  0.74348984  0.00407301     0.99000
C285        C  0.36407099  0.80210047  0.04939225     0.93900
O286        O  0.37973729  0.79827481  0.06407656    -0.82200
O287        O  0.37029545  0.78400287  0.45970377    -0.81600
C288        C  0.38834169  0.73566223  0.59714146     0.97700
O289        O  0.37246226  0.74171892  0.58953519    -0.70800
O290        O  0.37713914  0.77707481  0.58873605    -0.74300
Al291      Al  0.36498962  0.76086327  0.55016325     1.49000
C292        C  0.38082356  0.79300931  0.57600973     0.93000
O293        O  0.41673016  0.77630035  0.51319642    -0.80600
O294        O  0.39057588  0.73914359  0.44071180    -0.74100
Al295      Al  0.39291151  0.77926752  0.48822051     1.90100
O296        O  0.41914980  0.74698200  0.49758772    -0.73200
O297        O  0.37214215  0.72347570  0.50815255    -0.73000
O298        O  0.40008920  0.73464994  0.56608308    -0.78700
O299        O  0.35116595  0.74488498  0.51512891    -0.76900
O300        O  0.38423087  0.75925439  0.51397221    -1.13000
O301        O  0.35285417  0.78050623  0.51892395    -0.72200
C302        C  0.35526200  0.78649318  0.47985739     0.98500
C303        C  0.42650291  0.76219867  0.50647298     0.94900
Al304      Al  0.39467857  0.73765636  0.50395165     1.55600
O305        O  0.38651581  0.79580495  0.53660790    -0.76900
C306        C  0.35550128  0.72854314  0.50711404     0.99000
C307        C  0.39603178  0.75231484  0.41671200     0.93900
O308        O  0.40038469  0.76740755  0.43426323    -0.82200
O309        O  0.58976296  0.77042581  0.92691002    -0.81600
C310        C  0.60419205  0.73835720  0.08865628     0.97700
O311        O  0.59185148  0.73777982  0.05942460    -0.70800
O312        O  0.57164636  0.75098272  0.99343255    -0.74300
Al313      Al  0.59617902  0.74070131  0.99643999     1.49000
C314        C  0.56518948  0.76663714  0.00342197     0.93000
O315        O  0.60618580  0.79862133  0.02743760    -0.80600
O316        O  0.63862969  0.78260651  0.00610144    -0.74100
Al317      Al  0.59863187  0.78216073  0.98003051     1.90100
O318        O  0.61542290  0.77946964  0.07866080    -0.73200
O319        O  0.63996286  0.74701717  0.00150229    -0.73000
O320        O  0.61999924  0.74397463  0.07856965    -0.78700
O321        O  0.61870183  0.72596132  0.99683461    -0.76900
O322        O  0.60722237  0.76194775  0.00478929    -1.13000
O323        O  0.59921768  0.74197734  0.93299784    -0.72200
C324        C  0.59348816  0.75507214  0.90934108     0.98500
C325        C  0.61186576  0.79553951  0.06654367     0.94900
Al326      Al  0.62692120  0.76310590  0.03851908     1.55600
O327        O  0.57568346  0.78007229  0.00915380    -0.76900
C328        C  0.63534395  0.73083999  0.99306857     0.99000
C329        C  0.63573330  0.78868990  0.96742607     0.93900
O330        O  0.62069358  0.78599765  0.94832636    -0.82200
O331        O  0.61151080  0.80084113  0.55617427    -0.81600
C332        C  0.60412103  0.75342078  0.40683342     0.97700
O333        O  0.61851506  0.76141314  0.41928219    -0.70800
O334        O  0.61336905  0.79724930  0.42637008    -0.74300
Al335      Al  0.62327615  0.77900176  0.46511449     1.49000
C336        C  0.60685308  0.81216415  0.44093828     0.93000
O337        O  0.56855681  0.79110793  0.48885162    -0.80600
O338        O  0.59338641  0.75325703  0.56092744    -0.74100
Al339      Al  0.59088114  0.79467622  0.52072748     1.90100
O340        O  0.56747935  0.76141016  0.49778781    -0.73200
O341        O  0.61506444  0.74017082  0.49726259    -0.73000
O342        O  0.59061907  0.75171225  0.43319294    -0.78700
O343        O  0.63594967  0.76145335  0.50070009    -0.76900
O344        O  0.60219225  0.77581744  0.49419052    -1.13000
O345        O  0.63242248  0.79731501  0.50396268    -0.72200
C346        C  0.62715629  0.80434618  0.54028429     0.98500
C347        C  0.55952524  0.77641444  0.49012024     0.94900
Al348      Al  0.59242068  0.75352575  0.49699560     1.55600
O349        O  0.59810335  0.81265108  0.47744256    -0.76900
C350        C  0.63133143  0.74493876  0.50475032     0.99000
C351        C  0.58655294  0.76543050  0.58616620     0.93900
O352        O  0.58206141  0.78088830  0.57074065    -0.82200
O353        O  0.88272700  0.29855625  0.19678433    -0.81600
C354        C  0.89308751  0.25105082  0.34366836     0.97700
O355        O  0.87871545  0.25961519  0.33334382    -0.70800
O356        O  0.88422860  0.29500916  0.32673542    -0.74300
Al357      Al  0.87310657  0.27730522  0.28923991     1.49000
C358        C  0.88968611  0.31008536  0.31141395     0.93000
O359        O  0.92699899  0.28882998  0.25893525    -0.80600
O360        O  0.90057833  0.25135286  0.18879635    -0.74100
Al361      Al  0.90406952  0.29260777  0.22976078     1.90100
O362        O  0.92768745  0.25910132  0.24861204    -0.73200
O363        O  0.88027458  0.23849580  0.25513668    -0.73000
O364        O  0.90613801  0.24921143  0.31597653    -0.78700
O365        O  0.85953319  0.26020734  0.25553456    -0.76900
O366        O  0.89338319  0.27380961  0.25728150    -1.13000
O367        O  0.86312120  0.29576554  0.25210917    -0.72200
C368        C  0.86742527  0.30221884  0.21457780     0.98500
C369        C  0.93587626  0.27398512  0.25536669     0.94900
Al370      Al  0.90293669  0.25139293  0.25253555     1.55600
O371        O  0.89747472  0.31081750  0.27368328    -0.76900
C372        C  0.86384583  0.24359742  0.25137773     0.99000
C373        C  0.90715221  0.26355711  0.16354811     0.93900
O374        O  0.91203845  0.27881526  0.17918195    -0.82200
O375        O  0.90720179  0.26944348  0.82296733    -0.81600
C376        C  0.89165331  0.23936672  0.66091190     0.97700
O377        O  0.90404774  0.23829615  0.68981818    -0.70800
O378        O  0.92427551  0.25042116  0.75478581    -0.74300
Al379      Al  0.90004562  0.24051966  0.75249684     1.49000
C380        C  0.93099812  0.26559249  0.74289015     0.93000
O381        O  0.88943052  0.29907414  0.72610048    -0.80600
O382        O  0.85694478  0.28157664  0.75046580    -0.74100
Al383      Al  0.89783407  0.28191441  0.77157365     1.90100
O384        O  0.87881634  0.28055153  0.67537189    -0.73200
O385        O  0.85618843  0.24600415  0.74962751    -0.73000
O386        O  0.87587573  0.24523501  0.67121987    -0.78700
O387        O  0.87815824  0.22556891  0.75089262    -0.76900
O388        O  0.88881565  0.26190014  0.74619024    -1.13000
O389        O  0.89716065  0.24127570  0.81580311    -0.72200
C390        C  0.90291924  0.25417245  0.83997345     0.98500
C391        C  0.88247743  0.29649273  0.68803699     0.94900
Al392      Al  0.86860653  0.26323131  0.71431072     1.55600
O393        O  0.92093782  0.27973139  0.74052079    -0.76900
C394        C  0.86134498  0.22969457  0.75409950     0.99000
C395        C  0.86036123  0.28758712  0.78897432     0.93900
O396        O  0.87607144  0.28582040  0.80560959    -0.82200
O397        O  0.12356705  0.29357718  0.30663752    -0.81600
C398        C  0.10855715  0.25385590  0.15007372     0.97700
O399        O  0.12402504  0.26029874  0.15998673    -0.70800
O400        O  0.12031529  0.29557650  0.17594052    -0.74300
Al401      Al  0.13117297  0.27606724  0.20825465     1.49000
C402        C  0.11551027  0.31028322  0.19468452     0.93000
O403        O  0.07910761  0.29006176  0.24372483    -0.80600
O404        O  0.10357430  0.24846993  0.30480300    -0.74100
Al405      Al  0.10183814  0.29085517  0.27367946     1.90100
O406        O  0.07592799  0.26027900  0.24856727    -0.73200
O407        O  0.12251215  0.23660228  0.23469308    -0.73000
O408        O  0.09634594  0.25153801  0.17946718    -0.78700
O409        O  0.14428772  0.25709034  0.23665522    -0.76900
O410        O  0.11120295  0.27260858  0.24124299    -1.13000
O411        O  0.14246216  0.29274070  0.24924709    -0.72200
C412        C  0.13861640  0.29781801  0.28858948     0.98500
C413        C  0.06911341  0.27605013  0.24288058     0.94900
Al414      Al  0.10044635  0.25091790  0.24188253     1.55600
O415        O  0.10917485  0.31020496  0.23398554    -0.76900
C416        C  0.13925358  0.24064931  0.23801514     0.99000
C417        C  0.09727851  0.25969921  0.33316761     0.93900
O418        O  0.09282798  0.27573670  0.32166431    -0.82200
O419        O  0.11914322  0.28866376  0.79990208    -0.81600
C420        C  0.10586562  0.24338928  0.65148434     0.97700
O421        O  0.12145195  0.24882798  0.66347625    -0.70800
O422        O  0.11686763  0.28414324  0.66869939    -0.74300
Al423      Al  0.12741421  0.26707395  0.70743102     1.49000
C424        C  0.11283434  0.29996929  0.68204447     0.93000
O425        O  0.07489884  0.28325027  0.73471373    -0.80600
O426        O  0.09767297  0.24373016  0.80605834    -0.74100
Al427      Al  0.09758244  0.28495046  0.76549822     1.90100
O428        O  0.07123799  0.25370115  0.74449306    -0.73200
O429        O  0.11825762  0.22902702  0.74196904    -0.73000
O430        O  0.09289818  0.24232972  0.67944346    -0.78700
O431        O  0.13952011  0.25012844  0.74337243    -0.76900
O432        O  0.10690026  0.26525842  0.73871702    -1.13000
O433        O  0.13843677  0.28595061  0.74391647    -0.72200
C434        C  0.13469010  0.29164998  0.78280786     0.98500
C435        C  0.06465336  0.26936290  0.73579469     0.94900
Al436      Al  0.09582699  0.24378900  0.74271820     1.55600
O437        O  0.10597352  0.30236004  0.72062628    -0.76900
C438        C  0.13477822  0.23372442  0.74798318     0.99000
C439        C  0.09185714  0.25634848  0.83139294     0.93900
O440        O  0.08788120  0.27195988  0.81602376    -0.82200
O441        O  0.27298139  0.87992444  0.31711084    -0.81600
C442        C  0.22775602  0.88988624  0.16775988     0.97700
O443        O  0.23395797  0.87480273  0.18149176    -0.70800
O444        O  0.26894991  0.88075127  0.18603486    -0.74300
Al445      Al  0.25214589  0.87006240  0.22564216     1.49000
C446        C  0.28424838  0.88658197  0.19835239     0.93000
O447        O  0.26552357  0.92389409  0.25107573    -0.80600
O448        O  0.22654731  0.89963764  0.32206295    -0.74100
Al449      Al  0.26823453  0.90111473  0.28178134     1.90100
O450        O  0.23568602  0.92600202  0.25937342    -0.73200
O451        O  0.21347481  0.87794887  0.25778524    -0.73000
O452        O  0.22603764  0.90329105  0.19424282    -0.78700
O453        O  0.23550288  0.85758680  0.26256300    -0.76900
O454        O  0.24917665  0.89082154  0.25528123    -1.13000
O455        O  0.27114978  0.86019472  0.26247058    -0.72200
C456        C  0.27625521  0.86426270  0.30129283     0.98500
C457        C  0.25107834  0.93350820  0.25262442     0.94900
Al458      Al  0.22709608  0.90098255  0.25815976     1.55600
O459        O  0.28618509  0.89356919  0.23678896    -0.76900
C460        C  0.21875554  0.86160440  0.26451376     0.99000
C461        C  0.23885221  0.90605103  0.34703554     0.93900
O462        O  0.25447135  0.91010478  0.33152510    -0.82200
O463        O  0.26770429  0.91739241  0.68149563    -0.81600
C464        C  0.24331434  0.89788919  0.84903783     0.97700
O465        O  0.24123103  0.91080062  0.82156706    -0.70800
O466        O  0.25070258  0.93252810  0.75560875    -0.74300
Al467      Al  0.24188848  0.90806623  0.75813695     1.49000
C468        C  0.26609139  0.93972341  0.76271729     0.93000
O469        O  0.30133792  0.89978172  0.76811858    -0.80600
O470        O  0.28447747  0.86649579  0.74660550    -0.74100
Al471      Al  0.28231040  0.90778221  0.72877273     1.90100
O472        O  0.28650325  0.88695693  0.82340343    -0.73200
O473        O  0.24839347  0.86406671  0.75844887    -0.73000
O474        O  0.25099797  0.88308081  0.83728365    -0.78700
O475        O  0.22806107  0.88615734  0.76086220    -0.76900
O476        O  0.26382581  0.89752175  0.75875013    -1.13000
O477        O  0.24041632  0.90612164  0.69454198    -0.72200
C478        C  0.25210586  0.91269340  0.66783193     0.98500
C479        C  0.30131760  0.89207592  0.80570874     0.94900
Al480      Al  0.26725983  0.87685682  0.78883977     1.55600
O481        O  0.28056814  0.93018056  0.76154130    -0.76900
C482        C  0.23199227  0.86947045  0.75641614     0.99000
C483        C  0.29000986  0.87128824  0.70825194     0.93900
O484        O  0.28594589  0.88677910  0.69272264    -0.82200
O485        O  0.28311009  0.12055896  0.20449791    -0.81600
C486        C  0.23339405  0.11187924  0.34703488     0.97700
O487        O  0.23979113  0.12696003  0.33357844    -0.70800
O488        O  0.27522207  0.12344900  0.33310358    -0.74300
Al489      Al  0.25862217  0.13219438  0.29058002     1.49000
C490        C  0.29099433  0.11767027  0.32344079     0.93000
O491        O  0.27389749  0.07764171  0.27400551    -0.80600
O492        O  0.23739474  0.10114269  0.19372285    -0.74100
Al493      Al  0.27745554  0.10011623  0.24117862     1.90100
O494        O  0.24483007  0.07525719  0.25768194    -0.73200
O495        O  0.22113632  0.12213568  0.25536723    -0.73000
O496        O  0.23277403  0.09815858  0.32117369    -0.78700
O497        O  0.24198458  0.14344172  0.25122243    -0.76900
O498        O  0.25735534  0.11072160  0.26320649    -1.13000
O499        O  0.27793640  0.14216581  0.25375105    -0.72200
C500        C  0.28482119  0.13688950  0.21712771     0.98500
C501        C  0.25982835  0.06782313  0.26834596     0.94900
Al502      Al  0.23572242  0.09997215  0.25747669     1.55600
O503        O  0.29381057  0.10886597  0.28753742    -0.76900
C504        C  0.22553945  0.13857484  0.24814480     0.99000
C505        C  0.25071213  0.09471000  0.17121213     0.93900
O506        O  0.26555754  0.09025048  0.18989832    -0.82200
O507        O  0.26931839  0.09717005  0.83406782    -0.81600
C508        C  0.24413674  0.11156821  0.66550041     0.97700
O509        O  0.24317986  0.09897805  0.69423087    -0.70800
O510        O  0.25354272  0.07927368  0.76335395    -0.74300
Al511      Al  0.24309374  0.10305226  0.75713793     1.49000
C512        C  0.26942565  0.07277187  0.75747481     0.93000
O513        O  0.30186676  0.11457175  0.74289568    -0.80600
O514        O  0.28270427  0.14747042  0.76286385    -0.74100
Al515      Al  0.28342628  0.10639499  0.78476175     1.90100
O516        O  0.28604463  0.12612528  0.68787236    -0.73200
O517        O  0.24649547  0.14705034  0.75395497    -0.73000
O518        O  0.25022534  0.12721217  0.67576469    -0.78700
O519        O  0.22751086  0.12400360  0.75163065    -0.76900
O520        O  0.26427437  0.11494667  0.75477805    -1.13000
O521        O  0.24116593  0.10613990  0.82034912    -0.72200
C522        C  0.25319921  0.10074231  0.84740568     0.98500
C523        C  0.30120485  0.12165967  0.70453767     0.94900
Al524      Al  0.26612329  0.13530418  0.72285789     1.55600
O525        O  0.28310743  0.08324087  0.75503409    -0.76900
C526        C  0.23041370  0.14087236  0.75623244     0.99000
C527        C  0.28892471  0.14354840  0.80093698     0.93900
O528        O  0.28589914  0.12814423  0.81813258    -0.82200
O529        O  0.86890582  0.72201137  0.31133782    -0.81600
C530        C  0.88527609  0.76229354  0.15593106     0.97700
O531        O  0.86962350  0.75627650  0.16665013    -0.70800
O532        O  0.87094056  0.72061396  0.18048851    -0.74300
Al533      Al  0.86161384  0.74077587  0.21459303     1.49000
C534        C  0.87500214  0.70561608  0.19866120     0.93000
O535        O  0.91327983  0.72384725  0.24526629    -0.80600
O536        O  0.89129804  0.76619881  0.31106914    -0.74100
Al537      Al  0.89055489  0.72397023  0.27674093     1.90100
O538        O  0.91808321  0.75331168  0.25251816    -0.73200
O539        O  0.87237325  0.77978029  0.24270874    -0.73000
O540        O  0.89768751  0.76391532  0.18466654    -0.78700
O541        O  0.84958007  0.76045497  0.24444825    -0.76900
O542        O  0.88195504  0.74296314  0.24624084    -1.13000
O543        O  0.84963145  0.72451632  0.25583391    -0.72200
C544        C  0.85357937  0.71861268  0.29422835     0.98500
C545        C  0.92416283  0.73718593  0.24665150     0.94900
Al546      Al  0.89387896  0.76412097  0.24756648     1.55600
O547        O  0.88200821  0.70537424  0.23692418    -0.76900
C548        C  0.85537756  0.77665321  0.24627342     0.99000
C549        C  0.89729939  0.75426344  0.33772203     0.93900
O550        O  0.90046244  0.73811866  0.32448042    -0.82200
O551        O  0.91256871  0.73732764  0.67440878    -0.81600
C552        C  0.88984291  0.76634451  0.83529011     0.97700
O553        O  0.90401273  0.76696077  0.81074275    -0.70800
O554        O  0.92678301  0.75515156  0.74834589    -0.74300
Al555      Al  0.90304610  0.76543077  0.74653966     1.49000
C556        C  0.93311921  0.73962883  0.75821361     0.93000
O557        O  0.89086925  0.70679962  0.76502817    -0.80600
O558        O  0.85960243  0.72512104  0.73563070    -0.74100
Al559      Al  0.90116372  0.72433454  0.72259589     1.90100
O560        O  0.87822697  0.72503568  0.81445985    -0.73200
O561        O  0.85938307  0.76091089  0.73801629    -0.73000
O562        O  0.87499753  0.76026141  0.82024964    -0.78700
O563        O  0.88173383  0.78061086  0.74455543    -0.76900
O564        O  0.89138058  0.74420284  0.74802803    -1.13000
O565        O  0.90297158  0.76570063  0.68275191    -0.72200
C566        C  0.90919578  0.75296240  0.65830691     0.98500
C567        C  0.88233319  0.70915614  0.80159224     0.94900
Al568      Al  0.86982131  0.74291575  0.77485861     1.55600
O569        O  0.92306712  0.72555770  0.75744947    -0.76900
C570        C  0.86517496  0.77710169  0.73688586     0.99000
C571        C  0.86453522  0.71933402  0.69775493     0.93900
O572        O  0.88079361  0.72123495  0.68421881    -0.82200
O573        O  0.10960796  0.70925439  0.19254323    -0.81600
C574        C  0.10192930  0.75225606  0.34891745     0.97700
O575        O  0.11630008  0.74458444  0.33427326    -0.70800
O576        O  0.11266652  0.70946114  0.32199137    -0.74300
Al577      Al  0.12162741  0.72869224  0.28564149     1.49000
C578        C  0.10687432  0.69461398  0.30641474     0.93000
O579        O  0.06682816  0.71539935  0.26513413    -0.80600
O580        O  0.09054177  0.75542349  0.19600849    -0.74100
Al581      Al  0.08925322  0.71336327  0.23091280     1.90100
O582        O  0.06524734  0.74525545  0.25953152    -0.73200
O583        O  0.11147272  0.76789124  0.26053339    -0.73000
O584        O  0.08810886  0.75435790  0.32414672    -0.78700
O585        O  0.13359167  0.74782913  0.25342555    -0.76900
O586        O  0.10018246  0.73192288  0.25902805    -1.13000
O587        O  0.13126765  0.71179345  0.24236906    -0.72200
C588        C  0.12568299  0.70599653  0.20519114     0.98500
C589        C  0.05753939  0.73008132  0.26582006     0.94900
Al590      Al  0.08963845  0.75388830  0.25989556     1.55600
O591        O  0.09788472  0.69438748  0.27057387    -0.76900
C592        C  0.12811744  0.76422893  0.25394116     0.99000
C593        C  0.08383986  0.74364623  0.16990884     0.93900
O594        O  0.07930645  0.72802703  0.18412258    -0.82200
O595        O  0.08915167  0.73961319  0.83132170    -0.81600
C596        C  0.10541844  0.76847016  0.66793267     0.97700
O597        O  0.09281236  0.76974335  0.69688558    -0.70800
O598        O  0.07226664  0.75778690  0.76365645    -0.74300
Al599      Al  0.09659714  0.76802527  0.75988539     1.49000
C600        C  0.06593861  0.74209335  0.75438810     0.93000
O601        O  0.10755742  0.70947606  0.73549950    -0.80600
O602        O  0.13956126  0.72638361  0.75755273    -0.74100
Al603      Al  0.09902326  0.72688924  0.78047203     1.90100
O604        O  0.11751728  0.72775869  0.68305192    -0.73200
O605        O  0.14026677  0.76179482  0.75723540    -0.73000
O606        O  0.12120392  0.76302387  0.67880746    -0.78700
O607        O  0.11883726  0.78289105  0.75728354    -0.76900
O608        O  0.10784566  0.74663653  0.75404271    -1.13000
O609        O  0.09920683  0.76774439  0.82350694    -0.72200
C610        C  0.09306818  0.75502482  0.84792401     0.98500
C611        C  0.11355896  0.71196451  0.69621183     0.94900
Al612      Al  0.12803699  0.74491525  0.72167778     1.55600
O613        O  0.07649760  0.72848478  0.74975153    -0.76900
C614        C  0.13549947  0.77821126  0.76164868     0.99000
C615        C  0.13617658  0.72164728  0.79726569     0.93900
O616        O  0.12050409  0.72389477  0.81418514    -0.82200
O617        O  0.70454420  0.88888129  0.18763875    -0.81600
C618        C  0.74673291  0.90093742  0.34140977     0.97700
O619        O  0.73841619  0.88627122  0.33213731    -0.70800
O620        O  0.70298649  0.89088285  0.31824931    -0.74300
Al621      Al  0.72228916  0.87959788  0.28445226     1.49000
C622        C  0.68834689  0.89582493  0.29983009     0.93000
O623        O  0.71095762  0.93285627  0.25316423    -0.80600
O624        O  0.75037567  0.90626433  0.18554338    -0.74100
Al625      Al  0.70851738  0.91013088  0.22204979     1.90100
O626        O  0.74087750  0.93388113  0.24464098    -0.73200
O627        O  0.76236244  0.88613105  0.25396342    -0.73000
O628        O  0.74973317  0.91286916  0.31197942    -0.78700
O629        O  0.74080388  0.86548791  0.25543677    -0.76900
O630        O  0.72661558  0.89950906  0.25211898    -1.13000
O631        O  0.70514252  0.86912078  0.24287048    -0.72200
C632        C  0.70018597  0.87360850  0.20396327     0.98500
C633        C  0.72567838  0.94191811  0.25105721     0.94900
Al634      Al  0.74900917  0.90897747  0.24930304     1.55600
O635        O  0.68889370  0.90319201  0.26185551    -0.76900
C636        C  0.75749822  0.86957717  0.25212678     0.99000
C637        C  0.73906367  0.91391996  0.15978949     0.93900
O638        O  0.72347025  0.91877981  0.17404757    -0.82200
O639        O  0.73201191  0.91517366  0.82375086    -0.81600
C640        C  0.76025967  0.89729255  0.65842583     0.97700
O641        O  0.76088996  0.91064118  0.68523397    -0.70800
O642        O  0.74939987  0.93188038  0.75172420    -0.74300
Al643      Al  0.75970504  0.90767816  0.74889846     1.49000
C644        C  0.73353663  0.93813119  0.74399267     0.93000
O645        O  0.70117335  0.89689327  0.73011548    -0.80600
O646        O  0.71828382  0.86484889  0.75254475    -0.74100
Al647      Al  0.71875626  0.90533680  0.77394196     1.90100
O648        O  0.71908305  0.88600538  0.67725521    -0.73200
O649        O  0.75381487  0.86414776  0.75128238    -0.73000
O650        O  0.75449650  0.88192902  0.67129280    -0.78700
O651        O  0.77461674  0.88566018  0.74694010    -0.76900
O652        O  0.73834515  0.89635736  0.74615253    -1.13000
O653        O  0.76027322  0.90565275  0.81229253    -0.72200
C654        C  0.74783394  0.91145399  0.83827673     0.98500
C655        C  0.70335970  0.89038260  0.69120195     0.94900
Al656      Al  0.73659359  0.87586366  0.71554144     1.55600
O657        O  0.71989607  0.92767029  0.74247858    -0.76900
C658        C  0.77023504  0.86910086  0.75323780     0.99000
C659        C  0.71300768  0.86844683  0.79173241     0.93900
O660        O  0.71573637  0.88395125  0.80866706    -0.82200
O661        O  0.72041831  0.12788937  0.30292187    -0.81600
C662        C  0.76785185  0.11633731  0.15747425     0.97700
O663        O  0.76201344  0.13165408  0.17085810    -0.70800
O664        O  0.72674191  0.12711537  0.17255143    -0.74300
Al665      Al  0.74325480  0.13721639  0.21333856     1.49000
C666        C  0.71098155  0.12203831  0.18403750     0.93000
O667        O  0.72744103  0.08436511  0.23554712    -0.80600
O668        O  0.76557667  0.10664637  0.31215465    -0.74100
Al669      Al  0.72491297  0.10676546  0.26756754     1.90100
O670        O  0.75684042  0.08094189  0.24803703    -0.73200
O671        O  0.78072791  0.12745525  0.24869878    -0.73000
O672        O  0.76869535  0.10292128  0.18400607    -0.78700
O673        O  0.75986995  0.14915756  0.25108793    -0.76900
O674        O  0.74485049  0.11641149  0.24312705    -1.13000
O675        O  0.72390889  0.14773548  0.24882480    -0.72200
C676        C  0.71781948  0.14358639  0.28692133     0.98500
C677        C  0.74144387  0.07423920  0.23833574     0.94900
Al678      Al  0.76637234  0.10532575  0.24791337     1.55600
O679        O  0.70814450  0.11514005  0.22214698    -0.76900
C680        C  0.77632882  0.14409830  0.25402244     0.99000
C681        C  0.75251565  0.10030013  0.33543899     0.93900
O682        O  0.73720264  0.09688970  0.31802547    -0.82200
O683        O  0.72812744  0.09561520  0.66947713    -0.81600
C684        C  0.74936674  0.11164433  0.84125149     0.97700
O685        O  0.75199461  0.09933527  0.81232366    -0.70800
O686        O  0.74472284  0.07910529  0.74258283    -0.74300
Al687      Al  0.75236956  0.10369813  0.74963182     1.49000
C688        C  0.72962150  0.07104996  0.74764785     0.93000
O689        O  0.69252207  0.10910374  0.75871234    -0.80600
O690        O  0.70843350  0.14370549  0.74252762    -0.74100
Al691      Al  0.71228598  0.10306077  0.71809881     1.90100
O692        O  0.70623582  0.12144887  0.81597000    -0.73200
O693        O  0.74388375  0.14708228  0.75441796    -0.73000
O694        O  0.74144985  0.12647841  0.83118414    -0.78700
O695        O  0.76536149  0.12616621  0.75682822    -0.76900
O696        O  0.72996839  0.11329349  0.75038049    -1.13000
O697        O  0.75485947  0.10716092  0.68688918    -0.72200
C698        C  0.74404673  0.10078361  0.65823073     0.98500
C699        C  0.69182608  0.11605363  0.79732673     0.94900
Al700      Al  0.72540994  0.13304319  0.78325451     1.55600
O701        O  0.71472320  0.07987942  0.74685193    -0.76900
C702        C  0.76057468  0.14267863  0.75303375     0.99000
C703        C  0.70339458  0.13987289  0.70343887     0.93900
O704        O  0.70769118  0.12479901  0.68558423    -0.82200
C705        C  0.76127034  0.10364430  0.53659945     0.16100
C706        C  0.76891507  0.10893709  0.49530822    -0.32900
C707        C  0.76143963  0.10131364  0.45633948     0.20500
C708        C  0.74733909  0.08870086  0.45887673     0.02700
C709        C  0.73995030  0.08327168  0.49983764    -0.22700
C710        C  0.74701803  0.09120756  0.53837966     0.11900
S711        S  0.76708689  0.11229382  0.58771137    -0.06300
C712        C  0.74974362  0.09938253  0.61103590    -0.09800
C713        C  0.74039185  0.08872437  0.58071106    -0.26400
S714        S  0.73893412  0.08200987  0.40891021    -0.03600
C715        C  0.75426493  0.09652615  0.38347771    -0.17000
C716        C  0.76565863  0.10577801  0.41272530    -0.15000
H717        H  0.77968872  0.11903779  0.49357210     0.20300
H718        H  0.72859308  0.07381561  0.50147451     0.16400
H719        H  0.72890444  0.08001631  0.58902662     0.18900
H720        H  0.77558050  0.11598798  0.40285762     0.12200
C721        C  0.76262232  0.09975002  0.96154481     0.16100
C722        C  0.76440074  0.09194857  0.00413972    -0.32900
C723        C  0.76924502  0.10357782  0.03953255     0.20500
C724        C  0.77275851  0.12196679  0.03226261     0.02700
C725        C  0.77120602  0.12966689  0.98984720    -0.22700
C726        C  0.76570195  0.11825532  0.95505862     0.11900
S727        S  0.75534619  0.08851933  0.91476269    -0.06300
C728        C  0.75585264  0.10916273  0.88710914    -0.09800
C729        C  0.76173022  0.12372943  0.91266699    -0.26400
S730        S  0.77642993  0.13434408  0.07928152    -0.03600
C731        C  0.77255152  0.11478806  0.10981232    -0.17000
C732        C  0.76933193  0.09929026  0.08425310    -0.15000
H733        H  0.76129480  0.07767254  0.00981353     0.20300
H734        H  0.77323890  0.14417606  0.98466473     0.16400
H735        H  0.76268003  0.13771017  0.90100750     0.18900
H736        H  0.76547042  0.08611495  0.09770613     0.12200
C737        C  0.71989970  0.98877465  0.73907514     0.16100
C738        C  0.71092165  0.00581153  0.73776055    -0.32900
C739        C  0.72143932  0.02149048  0.74610368     0.20500
C740        C  0.73996168  0.02011242  0.75549530     0.02700
C741        C  0.74884884  0.00321125  0.75678486    -0.22700
C742        C  0.73845012  0.98767873  0.74816406     0.11900
S743        S  0.70978768  0.96798563  0.73111188    -0.06300
C744        C  0.73086311  0.95794948  0.74005649    -0.09800
C745        C  0.74481874  0.97013112  0.74841910    -0.26400
S746        S  0.75070454  0.04036279  0.76297902    -0.03600
C747        C  0.73016936  0.05110153  0.75278878    -0.17000
C748        C  0.71563143  0.03940990  0.74481567    -0.15000
H749        H  0.69646434  0.00680039  0.73041550     0.20300
H750        H  0.76333595  0.00222328  0.76387234     0.16400
H751        H  0.75881173  0.96631771  0.75585123     0.18900
H752        H  0.70188811  0.04377207  0.73657133     0.12200
C753        C  0.75836242  0.91373605  0.46206966     0.16100
C754        C  0.75889773  0.92161364  0.50488008    -0.32900
C755        C  0.76348020  0.91015510  0.54078438     0.20500
C756        C  0.76799698  0.89191060  0.53384128     0.02700
C757        C  0.76781425  0.88419275  0.49121964    -0.22700
C758        C  0.76248745  0.89536936  0.45587283     0.11900
S759        S  0.75114680  0.92454180  0.41467907    -0.06300
C760        C  0.75304789  0.90386083  0.38722167    -0.09800
C761        C  0.75938696  0.88963945  0.41321394    -0.26400
S762        S  0.77098490  0.87958162  0.58114392    -0.03600
C763        C  0.76552584  0.89894848  0.61121961    -0.17000
C764        C  0.76228869  0.91438179  0.58550019    -0.15000
H765        H  0.75493072  0.93573610  0.51026831     0.20300
H766        H  0.77059229  0.86976677  0.48623151     0.16400
H767        H  0.76106445  0.87566567  0.40177598     0.18900
H768        H  0.75760591  0.92741352  0.59859408     0.12200
C769        C  0.75903519  0.91021688  0.96325427     0.16100
C770        C  0.76436691  0.90511742  0.00648554    -0.32900
C771        C  0.75477413  0.91294773  0.04272969     0.20500
C772        C  0.74095859  0.92570052  0.03593417     0.02700
C773        C  0.73592181  0.93103024  0.99304037    -0.22700
C774        C  0.74500217  0.92276135  0.95705177     0.11900
S775        S  0.76740611  0.90095234  0.91463321    -0.06300
C776        C  0.75140773  0.91374490  0.88620309    -0.09800
C777        C  0.74058218  0.92481626  0.91314612    -0.26400
S778        S  0.72971968  0.93245706  0.08296383    -0.03600
C779        C  0.74333428  0.91762793  0.11260529    -0.17000
C780        C  0.75638351  0.90838523  0.08710968    -0.15000
H781        H  0.77488778  0.89487259  0.01156943     0.20300
H782        H  0.72471792  0.94052947  0.98790523     0.16400
H783        H  0.72953205  0.93341283  0.90132622     0.18900
H784        H  0.76565502  0.89808787  0.09983171     0.12200
C785        C  0.74518542  0.02207530  0.23710687     0.16100
C786        C  0.75132718  0.00402914  0.24107658    -0.32900
C787        C  0.73813170  0.99032817  0.24550488     0.20500
C788        C  0.71955814  0.99426057  0.24556365     0.02700
C789        C  0.71336275  0.01241536  0.24131696    -0.22700
C790        C  0.72663952  0.02622406  0.23721421     0.11900
S791        S  0.75922085  0.04056725  0.23423551    -0.06300
C792        C  0.73998707  0.05425191  0.23358712    -0.09800
C793        C  0.72354876  0.04476506  0.23480723    -0.26400
S794        S  0.70590536  0.97531598  0.25046196    -0.03600
C795        C  0.72552617  0.96210284  0.25242735    -0.17000
C796        C  0.74160509  0.97204680  0.24959916    -0.15000
H797        H  0.76581572  0.00081537  0.24126099     0.20300
H798        H  0.69888239  0.01564577  0.24158470     0.16400
H799        H  0.71013202  0.05111192  0.23612338     0.18900
H800        H  0.75523132  0.96613431  0.24925900     0.12200
C801        C  0.11200296  0.76665868  0.46853600     0.16100
C802        C  0.12076833  0.76973319  0.50896817    -0.32900
C803        C  0.10985450  0.77154290  0.54713636     0.20500
C804        C  0.09092384  0.77074711  0.54536630     0.02700
C805        C  0.08203389  0.76807114  0.50434767    -0.22700
C806        C  0.09306943  0.76584790  0.46590760     0.11900
S807        S  0.12329374  0.76216288  0.42013063    -0.06300
C808        C  0.10241793  0.75897195  0.39521508    -0.09800
C809        C  0.08739134  0.76160554  0.42332489    -0.26400
S810        S  0.08050407  0.77131253  0.59685706    -0.03600
C811        C  0.10197098  0.77215610  0.62044052    -0.17000
C812        C  0.11619980  0.77255890  0.58970485    -0.15000
H813        H  0.13557028  0.76983995  0.51090799     0.20300
H814        H  0.06728088  0.76694166  0.50278597     0.16400
H815        H  0.07327826  0.75964559  0.41375838     0.18900
H816        H  0.13058962  0.77224922  0.59815667     0.12200
C817        C  0.09207975  0.76419983  0.97449787     0.16100
C818        C  0.09559348  0.76952098  0.01873999    -0.32900
C819        C  0.08770768  0.75905495  0.05324867     0.20500
C820        C  0.07663108  0.74420327  0.04385354     0.02700
C821        C  0.07299145  0.73905293  0.99996533    -0.22700
C822        C  0.08108576  0.74924072  0.96576116     0.11900
S823        S  0.10122981  0.77407556  0.92749588    -0.06300
C824        C  0.09033444  0.75759327  0.89629980    -0.09800
C825        C  0.08003643  0.74542873  0.92129034    -0.26400
S826        S  0.06933716  0.73237841  0.08933754    -0.03600
C827        C  0.08145769  0.74735603  0.12201419    -0.17000
C828        C  0.09043019  0.76104826  0.09841204    -0.15000
H829        H  0.10449803  0.78092738  0.02592778     0.20300
H830        H  0.06467690  0.72719831  0.99277647     0.16400
H831        H  0.07256194  0.73397393  0.90765496     0.18900
H832        H  0.09921774  0.77123509  0.11321887     0.12200
C833        C  0.79999903  0.82661315  0.75376344     0.16100
C834        C  0.80633033  0.80867807  0.74964622    -0.32900
C835        C  0.82494159  0.80615615  0.74080418     0.20500
C836        C  0.83685450  0.82079210  0.73676613     0.02700
C837        C  0.83047705  0.83881922  0.74058255    -0.22700
C838        C  0.81174721  0.84136100  0.74905034     0.11900
S839        S  0.77772983  0.83230754  0.76220676    -0.06300
C840        C  0.78412391  0.85486275  0.75821009    -0.09800
C841        C  0.80267642  0.85774252  0.75186504    -0.26400
S842        S  0.85919555  0.81463474  0.72931896    -0.03600
C843        C  0.85224501  0.79217543  0.73167320    -0.17000
C844        C  0.83364059  0.78971828  0.73722196    -0.15000
H845        H  0.79712892  0.79717954  0.75304977     0.20300
H846        H  0.83967837  0.85031230  0.73719557     0.16400
H847        H  0.80898035  0.87097418  0.74700103     0.18900
H848        H  0.82698417  0.77661332  0.74138865     0.12200
C849        C  0.98378476  0.74786306  0.77597718     0.16100
C850        C  0.00072195  0.75650443  0.77927771    -0.32900
C851        C  0.01626204  0.74655063  0.76653249     0.20500
C852        C  0.01513781  0.72858716  0.75198874     0.02700
C853        C  0.99807894  0.71983502  0.74887040    -0.22700
C854        C  0.98237906  0.72997081  0.76092926     0.11900
S855        S  0.96348583  0.75849637  0.78589561    -0.06300
C856        C  0.95269081  0.73885467  0.76875353    -0.09800
C857        C  0.96440202  0.72458919  0.75710446    -0.26400
S858        S  0.03590417  0.71895701  0.73889736    -0.03600
C859        C  0.04599628  0.73948911  0.75266987    -0.17000
C860        C  0.03381915  0.75289255  0.76669554    -0.15000
H861        H  0.00170076  0.77057901  0.79029502     0.20300
H862        H  0.99706831  0.70591453  0.73681330     0.16400
H863        H  0.96005698  0.71161557  0.74343722     0.18900
H864        H  0.03765671  0.76646549  0.77760211     0.12200
C865        C  0.82572590  0.82073998  0.24968823     0.16100
C866        C  0.81880977  0.83875019  0.24844815    -0.32900
C867        C  0.79966138  0.84116630  0.24808246     0.20500
C868        C  0.78797357  0.82628846  0.24890514     0.02700
C869        C  0.79487320  0.80833968  0.25017373    -0.22700
C870        C  0.81396330  0.80592982  0.25057665     0.11900
S871        S  0.84847012  0.81475030  0.24931950    -0.06300
C872        C  0.84207152  0.79203129  0.25021898    -0.09800
C873        C  0.82321587  0.78950314  0.25104804    -0.26400
S874        S  0.76524088  0.83197100  0.24914819    -0.03600
C875        C  0.77136160  0.85472753  0.24832856    -0.17000
C876        C  0.79020452  0.85754628  0.24765496    -0.15000
H877        H  0.82794975  0.85036271  0.24775630     0.20300
H878        H  0.78573110  0.79672636  0.25084713     0.16400
H879        H  0.81658502  0.77628698  0.25090759     0.18900
H880        H  0.79663647  0.87085811  0.24785727     0.12200
C881        C  0.90115422  0.76849347  0.46106728     0.16100
C882        C  0.89856761  0.77557245  0.50437364    -0.32900
C883        C  0.90637460  0.76584182  0.54004879     0.20500
C884        C  0.91667295  0.75013055  0.53254300     0.02700
C885        C  0.91951677  0.74332421  0.48954524    -0.22700
C886        C  0.91131928  0.75266347  0.45434059     0.11900
S887        S  0.89149653  0.77695536  0.41330686    -0.06300
C888        C  0.90095840  0.75864132  0.38478278    -0.09800
C889        C  0.91127263  0.74701993  0.41099707    -0.26400
S890        S  0.92357873  0.73916554  0.57939837    -0.03600
C891        C  0.91219175  0.75558736  0.61014889    -0.17000
C892        C  0.90391412  0.76919884  0.58491396    -0.15000
H893        H  0.89019903  0.78761723  0.51017110     0.20300
H894        H  0.92708900  0.73074265  0.48396135     0.16400
H895        H  0.91794966  0.73464736  0.39916476     0.18900
H896        H  0.89553055  0.78015214  0.59850158     0.12200
C897        C  0.88000272  0.77554801  0.95791032     0.16100
C898        C  0.87101173  0.77570107  0.99918017    -0.32900
C899        C  0.88155589  0.77289343  0.03717227     0.20500
C900        C  0.90040222  0.77074208  0.03461181     0.02700
C901        C  0.90950812  0.77081520  0.99303703    -0.22700
C902        C  0.89879519  0.77295798  0.95458747     0.11900
S903        S  0.86897135  0.77614618  0.90845599    -0.06300
C904        C  0.88968474  0.77217661  0.88228070    -0.09800
C905        C  0.90453799  0.77119521  0.91082598    -0.26400
S906        S  0.91042208  0.76660055  0.08505184    -0.03600
C907        C  0.88887782  0.76717989  0.10910051    -0.17000
C908        C  0.87489320  0.77080489  0.07956577    -0.15000
H909        H  0.85625245  0.77701161  0.00139616     0.20300
H910        H  0.92412687  0.76844406  0.99066244     0.16400
H911        H  0.91839933  0.76785337  0.90052114     0.18900
H912        H  0.86049076  0.77130429  0.08844987     0.12200
C913        C  0.00639797  0.74113115  0.26953603     0.16100
C914        C  0.98969932  0.75051545  0.26817784    -0.32900
C915        C  0.97406925  0.74057770  0.25727792     0.20500
C916        C  0.97489525  0.72197861  0.24848404     0.02700
C917        C  0.99177103  0.71251251  0.24955082    -0.22700
C918        C  0.00757719  0.72257702  0.26020365     0.11900
S919        S  0.02672246  0.75131726  0.28006758    -0.06300
C920        C  0.03740092  0.73055231  0.27109737    -0.09800
C921        C  0.02548383  0.71632075  0.26122854    -0.26400
S922        S  0.95393582  0.71249040  0.23788791    -0.03600
C923        C  0.94415697  0.73388959  0.24516821    -0.17000
C924        C  0.95663906  0.74747302  0.25502445    -0.15000
H925        H  0.98894682  0.76504642  0.27507665     0.20300
H926        H  0.99254230  0.69801767  0.24231125     0.16400
H927        H  0.02973628  0.70253071  0.25279651     0.18900
H928        H  0.95306571  0.76160080  0.26187948     0.12200
C929        C  0.23345665  0.09775785  0.54465557     0.16100
C930        C  0.23329384  0.08947097  0.50228812    -0.32900
C931        C  0.22890317  0.10051176  0.46548324     0.20500
C932        C  0.22424157  0.11879230  0.47105421     0.02700
C933        C  0.22397870  0.12692307  0.51333781    -0.22700
C934        C  0.22908913  0.11612230  0.54968626     0.11900
S935        S  0.24049748  0.08744357  0.59285999    -0.06300
C936        C  0.23813951  0.10827903  0.61938736    -0.09800
C937        C  0.23178105  0.12221689  0.59232400    -0.26400
S938        S  0.22171432  0.13057386  0.42261751    -0.03600
C939        C  0.22748968  0.11088090  0.39405607    -0.17000
C940        C  0.23050663  0.09578914  0.42110967    -0.15000
H941        H  0.23742596  0.07533775  0.49791036     0.20300
H942        H  0.22105224  0.14137011  0.51735397     0.16400
H943        H  0.22984255  0.13626189  0.60297678     0.18900
H944        H  0.23538009  0.08263529  0.40920967     0.12200
C945        C  0.25696913  0.08767428  0.04582189     0.16100
C946        C  0.26428695  0.08397557  0.00361781    -0.32900
C947        C  0.25499437  0.09087744  0.96676180     0.20500
C948        C  0.23889805  0.10084173  0.97131218     0.02700
C949        C  0.23143212  0.10446570  0.01387031    -0.22700
C950        C  0.24093388  0.09771429  0.05108301     0.11900
S951        S  0.26713469  0.08141602  0.09416861    -0.06300
C952        C  0.24973641  0.09247134  0.12251931    -0.09800
C953        C  0.23661763  0.10046959  0.09540140    -0.26400
S954        S  0.23033976  0.10858724  0.92168389    -0.03600
C955        C  0.24890690  0.09854409  0.89517754    -0.17000
C956        C  0.26073180  0.08949541  0.92347849    -0.15000
H957        H  0.27699601  0.07642233  0.99971910     0.20300
H958        H  0.21905251  0.11252884  0.01783473     0.16400
H959        H  0.22504853  0.10844529  0.10736757     0.18900
H960        H  0.27325463  0.08267527  0.91302641     0.12200
C961        C  0.17930880  0.80613284  0.77033951     0.16100
C962        C  0.19764045  0.81164847  0.77122647    -0.32900
C963        C  0.20144800  0.82991278  0.76096485     0.20500
C964        C  0.18757346  0.84215662  0.75057243     0.02700
C965        C  0.16922391  0.83662127  0.74958530    -0.22700
C966        C  0.16541209  0.81832015  0.75971041     0.11900
S967        S  0.17212651  0.78438592  0.77954389    -0.06300
C968        C  0.15013804  0.79162538  0.76836408    -0.09800
C969        C  0.14853804  0.81009346  0.75887680    -0.26400
S970        S  0.19488571  0.86390366  0.74125163    -0.03600
C971        C  0.21687246  0.85646191  0.75157398    -0.17000
C972        C  0.21835796  0.83799908  0.76114369    -0.15000
H973        H  0.20846978  0.80208759  0.77936362     0.20300
H974        H  0.15840338  0.84616596  0.74129710     0.16400
H975        H  0.13595004  0.81687274  0.74941910     0.18900
H976        H  0.23096321  0.83108713  0.76992023     0.12200
C977        C  0.25858736  0.99117015  0.77368451     0.16100
C978        C  0.25072065  0.00859532  0.77431079    -0.32900
C979        C  0.26221995  0.02347762  0.76649430     0.20500
C980        C  0.28086005  0.02130073  0.75918198     0.02700
C981        C  0.28882542  0.00374581  0.75892992    -0.22700
C982        C  0.27719804  0.98871086  0.76606729     0.11900
S983        S  0.24645593  0.97152509  0.77887667    -0.06300
C984        C  0.26653296  0.95960390  0.77002122    -0.09800
C985        C  0.28191810  0.97047458  0.76433612    -0.26400
S986        S  0.29226432  0.04147776  0.75072023    -0.03600
C987        C  0.27157793  0.05273691  0.75669583    -0.17000
C988        C  0.25684818  0.04133583  0.76491213    -0.15000
H989        H  0.23614470  0.01045172  0.77968898     0.20300
H990        H  0.30333361  0.00187200  0.75267723     0.16400
H991        H  0.29554079  0.96535235  0.75692355     0.18900
H992        H  0.24287484  0.04591469  0.77032750     0.12200
C993        C  0.19129708  0.81719095  0.27047621     0.16100
C994        C  0.18591154  0.79881114  0.26935497    -0.32900
C995        C  0.16751398  0.79508084  0.26027937     0.20500
C996        C  0.15499830  0.80907706  0.25324202     0.02700
C997        C  0.16037668  0.82747185  0.25445896    -0.22700
C998        C  0.17883202  0.83119852  0.26305648     0.11900
S999        S  0.21318019  0.82438483  0.27816099    -0.06300
C1000       C  0.20562223  0.84654028  0.27052998    -0.09800
C1001       C  0.18695097  0.84813200  0.26335504    -0.26400
S1002       S  0.13319530  0.80178253  0.24456100    -0.03600
C1003       C  0.14098190  0.77960416  0.25028898    -0.17000
C1004       C  0.15958586  0.77809682  0.25825785    -0.15000
H1005       H  0.19569063  0.78788693  0.27484090     0.20300
H1006       H  0.15062212  0.83838920  0.24866433     0.16400
H1007       H  0.17989100  0.86084689  0.25635940     0.18900
H1008       H  0.16673953  0.76535044  0.26433297     0.12200
C1009       C  0.22993478  0.90569157  0.47355815     0.16100
C1010       C  0.22538014  0.90121891  0.51792002    -0.32900
C1011       C  0.23596803  0.90901872  0.55205016     0.20500
C1012       C  0.25023717  0.92083790  0.54220297     0.02700
C1013       C  0.25456377  0.92546758  0.49829099    -0.22700
C1014       C  0.24422328  0.91755491  0.46447490     0.11900
S1015       S  0.22010617  0.89662844  0.42667057    -0.06300
C1016       C  0.23575088  0.90875731  0.39516475    -0.09800
C1017       C  0.24749412  0.91944392  0.41995188    -0.26400
S1018       S  0.26236061  0.92797222  0.58702356    -0.03600
C1019       C  0.24817464  0.91496267  0.62010307    -0.17000
C1020       C  0.23460325  0.90567960  0.59714046    -0.15000
H1021       H  0.21449257  0.89167857  0.52541204     0.20300
H1022       H  0.26595437  0.93440613  0.49069945     0.16400
H1023       H  0.25853723  0.92755113  0.40610255     0.18900
H1024       H  0.22486056  0.89641594  0.61231190     0.12200
C1025       C  0.22247172  0.88483936  0.04189627     0.16100
C1026       C  0.22335642  0.87768652  0.99860801    -0.32900
C1027       C  0.22796112  0.88963879  0.96390685     0.20500
C1028       C  0.23086126  0.90810350  0.97150874     0.02700
C1029       C  0.22962820  0.91535940  0.01491114    -0.22700
C1030       C  0.22562316  0.90323532  0.05001607     0.11900
S1031       S  0.21989356  0.87190766  0.08864465    -0.06300
C1032       C  0.22345050  0.89133293  0.11996805    -0.09800
C1033       C  0.22595847  0.90711125  0.09497995    -0.26400
S1034       S  0.23739376  0.92000763  0.92486019    -0.03600
C1035       C  0.23678243  0.89973845  0.89545598    -0.17000
C1036       C  0.23136972  0.88477905  0.92050889    -0.15000
H1037       H  0.22152066  0.86320405  0.99254998     0.20300
H1038       H  0.23253544  0.92962972  0.02128632     0.16400
H1039       H  0.22940983  0.92032608  0.10884131     0.18900
H1040       H  0.23055890  0.87091833  0.90787616     0.12200
C1041       C  0.26817594  0.01518058  0.26987815     0.16100
C1042       C  0.27522393  0.99716580  0.27069304    -0.32900
C1043       C  0.26332103  0.98267214  0.25983305     0.20500
C1044       C  0.24523137  0.98603658  0.24883162     0.02700
C1045       C  0.23825821  0.00395306  0.24782430    -0.22700
C1046       C  0.25009259  0.01835768  0.25867891     0.11900
S1047       S  0.28022452  0.03485173  0.28103826    -0.06300
C1048       C  0.26063713  0.04744506  0.27052577    -0.09800
C1049       C  0.24572367  0.03665708  0.25915761    -0.26400
S1050       S  0.23268519  0.96677626  0.23883889    -0.03600
C1051       C  0.25193665  0.95378916  0.24929706    -0.17000
C1052       C  0.26730343  0.96415659  0.25976014    -0.15000
H1053       H  0.28933511  0.99455709  0.27951156     0.20300
H1054       H  0.22411463  0.00655581  0.23925021     0.16400
H1055       H  0.23236917  0.04198373  0.25043307     0.18900
H1056       H  0.28045657  0.95842508  0.26872121     0.12200
C1057       C  0.17805694  0.20515112  0.76482457     0.16100
C1058       C  0.19626156  0.19922767  0.76630217    -0.32900
C1059       C  0.19954740  0.18039128  0.76579029     0.20500
C1060       C  0.18530931  0.16792126  0.76462027     0.02700
C1061       C  0.16698534  0.17386726  0.76352680    -0.22700
C1062       C  0.16369820  0.19281775  0.76323113     0.11900
S1063       S  0.17164739  0.22744435  0.76193676    -0.06300
C1064       C  0.14929187  0.22031238  0.75763414    -0.09800
C1065       C  0.14700827  0.20148167  0.75924416    -0.26400
S1066       S  0.19237120  0.14564319  0.76217169    -0.03600
C1067       C  0.21469106  0.15332004  0.76218343    -0.17000
C1068       C  0.21640178  0.17212612  0.76451463    -0.15000
H1069       H  0.20742672  0.20892111  0.76657552     0.20300
H1070       H  0.15584923  0.16417894  0.76171717     0.16400
H1071       H  0.13402832  0.19454130  0.75591135     0.18900
H1072       H  0.22928498  0.17939916  0.76392060     0.12200
C1073       C  0.18382926  0.17028906  0.23597371     0.16100
C1074       C  0.16627885  0.17817627  0.23487206    -0.32900
C1075       C  0.16498541  0.19731181  0.23815224     0.20500
C1076       C  0.18046222  0.20808709  0.24213270     0.02700
C1077       C  0.19795661  0.20022952  0.24288294    -0.22700
C1078       C  0.19924627  0.18115418  0.23969853     0.11900
S1079       S  0.18841794  0.14731705  0.23514474    -0.06300
C1080       C  0.21132954  0.15249350  0.23993915    -0.09800
C1081       C  0.21502438  0.17105622  0.24153319    -0.26400
S1082       S  0.17612714  0.23098630  0.24542202    -0.03600
C1083       C  0.15317030  0.22610148  0.24122977    -0.17000
C1084       C  0.14922944  0.20760040  0.23770527    -0.15000
H1085       H  0.15417236  0.16977267  0.23210463     0.20300
H1086       H  0.21005080  0.20862126  0.24616743     0.16400
H1087       H  0.22850799  0.17686190  0.24590769     0.18900
H1088       H  0.13561357  0.20201789  0.23411631     0.12200
C1089       C  0.08726896  0.25234610  0.45767992     0.16100
C1090       C  0.08087502  0.25368237  0.50182837    -0.32900
C1091       C  0.09143537  0.24552282  0.53530345     0.20500
C1092       C  0.10761190  0.23635754  0.52518100     0.02700
C1093       C  0.11363824  0.23442185  0.48084331    -0.22700
C1094       C  0.10313560  0.24267774  0.44739443     0.11900
S1095       S  0.07767329  0.26321763  0.41320734    -0.06300
C1096       C  0.09500672  0.25438006  0.38020831    -0.09800
C1097       C  0.10747165  0.24352704  0.40275858    -0.26400
S1098       S  0.11988044  0.22991288  0.57082634    -0.03600
C1099       C  0.10295287  0.23944558  0.60394281    -0.17000
C1100       C  0.08849120  0.24697348  0.58048676    -0.15000
H1101       H  0.06865709  0.26148964  0.50996319     0.20300
H1102       H  0.12642795  0.22754547  0.47296636     0.16400
H1103       H  0.11959190  0.23744634  0.38774416     0.18900
H1104       H  0.07728711  0.25457691  0.59562363     0.12200
C1105       C  0.08554950  0.25712889  0.95795180     0.16100
C1106       C  0.08161866  0.26230124  0.00196140    -0.32900
C1107       C  0.09204859  0.25433772  0.03578055     0.20500
C1108       C  0.10577791  0.24170490  0.02631463     0.02700
C1109       C  0.10926317  0.23602069  0.98232727    -0.22700
C1110       C  0.09887681  0.24408901  0.94839028     0.11900
S1111       S  0.07607356  0.26703994  0.91220604    -0.06300
C1112       C  0.09006291  0.25339103  0.87965479    -0.09800
C1113       C  0.10128682  0.24162150  0.90333113    -0.26400
S1114       S  0.11837756  0.23541242  0.07159334    -0.03600
C1115       C  0.10469728  0.24964186  0.10341360    -0.17000
C1116       C  0.09117078  0.25869848  0.08014729    -0.15000
H1117       H  0.07141852  0.27269111  0.00937232     0.20300
H1118       H  0.12013481  0.22636273  0.97470797     0.16400
H1119       H  0.11152815  0.23270415  0.88843458     0.18900
H1120       H  0.08191540  0.26875510  0.09454855     0.12200
C1121       C  0.82984828  0.18788978  0.76052066     0.16100
C1122       C  0.82218772  0.17034720  0.76101254    -0.32900
C1123       C  0.80322113  0.16893828  0.75476604     0.20500
C1124       C  0.79232881  0.18426950  0.74832435     0.02700
C1125       C  0.79998220  0.20179115  0.74783175    -0.22700
C1126       C  0.81892109  0.20320054  0.75421209     0.11900
S1127       S  0.85266258  0.19256476  0.76580595    -0.06300
C1128       C  0.84737998  0.21538745  0.75939003    -0.09800
C1129       C  0.82886996  0.21899170  0.75391665    -0.26400
S1130       S  0.76954238  0.17969236  0.74271051    -0.03600
C1131       C  0.77471966  0.15687314  0.74943522    -0.17000
C1132       C  0.79319964  0.15316494  0.75512049    -0.15000
H1133       H  0.83063337  0.15832405  0.76596169     0.20300
H1134       H  0.79154100  0.21381262  0.74279611     0.16400
H1135       H  0.82306191  0.23243381  0.74820877     0.18900
H1136       H  0.79893142  0.13967982  0.76065356     0.12200
C1137       C  0.98250173  0.25816833  0.72256914     0.16100
C1138       C  0.99999707  0.25034822  0.71884877    -0.32900
C1139       C  0.01513083  0.26194119  0.72237418     0.20500
C1140       C  0.01299608  0.28063754  0.72823890     0.02700
C1141       C  0.99538523  0.28855023  0.73138908    -0.22700
C1142       C  0.98015479  0.27683245  0.72883408     0.11900
S1143       S  0.96271641  0.24596324  0.72328643    -0.06300
C1144       C  0.95087421  0.26605844  0.73278894    -0.09800
C1145       C  0.96190517  0.28151903  0.73431433    -0.26400
S1146       S  0.03329484  0.29209428  0.73377868    -0.03600
C1147       C  0.04467096  0.27139829  0.72907848    -0.17000
C1148       C  0.03316901  0.25658478  0.72283184    -0.15000
H1149       H  0.00174239  0.23571494  0.71493622     0.20300
H1150       H  0.99365168  0.30308838  0.73699803     0.16400
H1151       H  0.95696492  0.29522749  0.74119024     0.18900
H1152       H  0.03774067  0.24251224  0.72009075     0.12200
C1153       C  0.81825445  0.17505367  0.25516051     0.16100
C1154       C  0.83586041  0.18243940  0.25242986    -0.32900
C1155       C  0.83731114  0.20144904  0.24806004     0.20500
C1156       C  0.82195973  0.21264181  0.24617652     0.02700
C1157       C  0.80435092  0.20523892  0.24855713    -0.22700
C1158       C  0.80290203  0.18624445  0.25336901     0.11900
S1159       S  0.81355008  0.15229526  0.25958398    -0.06300
C1160       C  0.79064725  0.15793000  0.25889135    -0.09800
C1161       C  0.78701416  0.17650163  0.25582959    -0.26400
S1162       S  0.82666331  0.23544992  0.24341591    -0.03600
C1163       C  0.84954585  0.22982504  0.24543784    -0.17000
C1164       C  0.85319146  0.21122993  0.24718782    -0.15000
H1165       H  0.84789982  0.17377169  0.25401352     0.20300
H1166       H  0.79231198  0.21391712  0.24728284     0.16400
H1167       H  0.77346747  0.18249462  0.25348366     0.18900
H1168       H  0.86671958  0.20522748  0.24994049     0.12200
C1169       C  0.90629772  0.23534755  0.53859441     0.16100
C1170       C  0.91484611  0.23812337  0.49692793    -0.32900
C1171       C  0.90368968  0.23808071  0.45888681     0.20500
C1172       C  0.88502143  0.23487900  0.46245743     0.02700
C1173       C  0.87663621  0.23170809  0.50364481    -0.22700
C1174       C  0.88760347  0.23231503  0.54144443     0.11900
S1175       S  0.91664845  0.23744208  0.58938305    -0.06300
C1176       C  0.89540888  0.23476095  0.61405422    -0.09800
C1177       C  0.88134549  0.23185360  0.58438073    -0.26400
S1178       S  0.87328736  0.23733975  0.41433402    -0.03600
C1179       C  0.89356721  0.24310443  0.38855345    -0.17000
C1180       C  0.90878965  0.24260759  0.41594940    -0.15000
H1181       H  0.92931109  0.24117767  0.49453189     0.20300
H1182       H  0.86195403  0.22991363  0.50635818     0.16400
H1183       H  0.86702291  0.23074794  0.59365518     0.18900
H1184       H  0.92244186  0.24669000  0.40589997     0.12200
C1185       C  0.90247494  0.24431833  0.96624834     0.16100
C1186       C  0.89929330  0.23800755  0.01000486    -0.32900
C1187       C  0.90502038  0.24921730  0.04550113     0.20500
C1188       C  0.91371050  0.26572214  0.03734651     0.02700
C1189       C  0.91695647  0.27188632  0.99407020    -0.22700
C1190       C  0.91105393  0.26092684  0.95897681     0.11900
S1191       S  0.89587548  0.23358075  0.91810424    -0.06300
C1192       C  0.90463856  0.25186994  0.88856312    -0.09800
C1193       C  0.91233030  0.26528607  0.91488827    -0.26400
S1194       S  0.91898630  0.27792542  0.08350508    -0.03600
C1195       C  0.90920554  0.26089712  0.11507240    -0.17000
C1196       C  0.90242768  0.24627840  0.09055359    -0.15000
H1197       H  0.89232677  0.22520319  0.01607768     0.20300
H1198       H  0.92345062  0.28494716  0.98800351     0.16400
H1199       H  0.91820766  0.27788029  0.90244803     0.18900
H1200       H  0.89546789  0.23457793  0.10470152     0.12200
C1201       C  0.98732824  0.26488967  0.24593453     0.16100
C1202       C  0.00459912  0.25686194  0.24033322    -0.32900
C1203       C  0.01972516  0.26848353  0.23839472     0.20500
C1204       C  0.01779402  0.28732756  0.24112740     0.02700
C1205       C  0.00040394  0.29541072  0.24603503    -0.22700
C1206       C  0.98522275  0.28372129  0.24877753     0.11900
S1207       S  0.96749139  0.25295173  0.24992476    -0.06300
C1208       C  0.95601651  0.27348737  0.25554429    -0.09800
C1209       C  0.96718148  0.28878550  0.25433999    -0.26400
S1210       S  0.03810145  0.29887150  0.24089975    -0.03600
C1211       C  0.04918978  0.27802241  0.23805610    -0.17000
C1212       C  0.03764580  0.26308733  0.23622312    -0.15000
H1213       H  0.00621166  0.24214552  0.23852589     0.20300
H1214       H  0.99882128  0.31010516  0.24861963     0.16400
H1215       H  0.96234090  0.30278462  0.25625303     0.18900
H1216       H  0.04214092  0.24895086  0.23542448     0.12200
C1217       C  0.66077066  0.84157656  0.57405397     0.16100
C1218       C  0.67521523  0.85399189  0.57584375    -0.32900
C1219       C  0.67567767  0.86600244  0.61211278     0.20500
C1220       C  0.66213293  0.86601882  0.64476217     0.02700
C1221       C  0.64727645  0.85394993  0.64215478    -0.22700
C1222       C  0.64706446  0.84155193  0.60633378     0.11900
S1223       S  0.65866725  0.82516238  0.53430450    -0.06300
C1224       C  0.63900102  0.81806813  0.56106002    -0.09800
C1225       C  0.63439662  0.82807067  0.59891819    -0.26400
S1226       S  0.66684965  0.87963570  0.68956109    -0.03600
C1227       C  0.68756120  0.88472597  0.66465059    -0.17000
C1228       C  0.69001453  0.87703256  0.62276571    -0.15000
H1229       H  0.68612344  0.85369255  0.55114603     0.20300
H1230       H  0.63687555  0.85358890  0.66807812     0.16400
H1231       H  0.62233331  0.82580240  0.61936845     0.18900
H1232       H  0.70262257  0.87765412  0.60352305     0.12200
C1233       C  0.63098316  0.85633122  0.40853779     0.16100
C1234       C  0.64391093  0.87050679  0.40916792    -0.32900
C1235       C  0.65139691  0.87619783  0.36825298     0.20500
C1236       C  0.64527886  0.86894892  0.32835215     0.02700
C1237       C  0.63249242  0.85463727  0.32773988    -0.22700
C1238       C  0.62594997  0.84809012  0.36884279     0.11900
S1239       S  0.62223952  0.84602398  0.45490442    -0.06300
C1240       C  0.61273800  0.82961590  0.42094181    -0.09800
C1241       C  0.61572129  0.83251335  0.37575177    -0.26400
S1242       S  0.65652831  0.87702748  0.28248961    -0.03600
C1243       C  0.67060220  0.88927555  0.31732451    -0.17000
C1244       C  0.66617055  0.88765022  0.36222978    -0.15000
H1245       H  0.64874929  0.87605395  0.44039351     0.20300
H1246       H  0.62869567  0.84815071  0.29670539     0.16400
H1247       H  0.61162866  0.82316996  0.34967113     0.18900
H1248       H  0.67404923  0.89351888  0.38905987     0.12200
C1249       C  0.59249938  0.74556123  0.78264123     0.16100
C1250       C  0.59586397  0.73971773  0.73852487    -0.32900
C1251       C  0.58886438  0.75052194  0.70369033     0.20500
C1252       C  0.57863661  0.76614618  0.71267609     0.02700
C1253       C  0.57508057  0.77179702  0.75649548    -0.22700
C1254       C  0.58243495  0.76132462  0.79105220     0.11900
S1255       S  0.60086201  0.73536532  0.82981604    -0.06300
C1256       C  0.59101217  0.75281309  0.86076426    -0.09800
C1257       C  0.58154287  0.76552175  0.83551541    -0.26400
S1258       S  0.57237354  0.77818738  0.66673643    -0.03600
C1259       C  0.58388856  0.76230332  0.63444856    -0.17000
C1260       C  0.59182063  0.74813430  0.65854647    -0.15000
H1261       H  0.60409200  0.72766895  0.73165483     0.20300
H1262       H  0.56746779  0.78425011  0.76333816     0.16400
H1263       H  0.57472212  0.77753793  0.84893782     0.18900
H1264       H  0.60004459  0.73725235  0.64406914     0.12200
C1265       C  0.61195483  0.73650065  0.28729177     0.16100
C1266       C  0.61996410  0.73218265  0.24608495    -0.32900
C1267       C  0.60870510  0.73217023  0.20860432     0.20500
C1268       C  0.59009782  0.73575463  0.21187984     0.02700
C1269       C  0.58191197  0.73955389  0.25361891    -0.22700
C1270       C  0.59334259  0.74006678  0.29122535     0.11900
S1271       S  0.62399362  0.73967495  0.33496877    -0.06300
C1272       C  0.60385590  0.74594270  0.36112865    -0.09800
C1273       C  0.58852405  0.74527889  0.33401692    -0.26400
S1274       S  0.57945711  0.73735180  0.16120760    -0.03600
C1275       C  0.60045529  0.73373122  0.13574976    -0.17000
C1276       C  0.61462088  0.73077420  0.16535799    -0.15000
H1277       H  0.63459724  0.72998666  0.24297074     0.20300
H1278       H  0.56750105  0.74295653  0.25628813     0.16400
H1279       H  0.57487871  0.74942784  0.34431275     0.18900
H1280       H  0.62887613  0.72924547  0.15570873     0.12200
C1281       C  0.66453065  0.85089163  0.13003536     0.16100
C1282       C  0.65206827  0.84646649  0.09652135    -0.32900
C1283       C  0.63894895  0.83306921  0.10609916     0.20500
C1284       C  0.63814860  0.82458880  0.14736069     0.02700
C1285       C  0.65042472  0.82923262  0.18112380    -0.22700
C1286       C  0.66375071  0.84238090  0.17125779     0.11900
S1287       S  0.68142474  0.86679696  0.12503632    -0.06300
C1288       C  0.68753051  0.86193227  0.17909147    -0.09800
C1289       C  0.67706635  0.84849813  0.19939062    -0.26400
S1290       S  0.62310443  0.80686870  0.15025989    -0.03600
C1291       C  0.61819023  0.81055519  0.09489594    -0.17000
C1292       C  0.62716554  0.82539142  0.07622885    -0.15000
H1293       H  0.65289037  0.85281441  0.06398003     0.20300
H1294       H  0.65004020  0.82240899  0.21312650     0.16400
H1295       H  0.67849730  0.84413779  0.23367384     0.18900
H1296       H  0.62696242  0.82880680  0.04110742     0.12200
C1297       C  0.68255221  0.83109286  0.83872992     0.16100
C1298       C  0.67005764  0.81690580  0.84447891    -0.32900
C1299       C  0.66433657  0.81303409  0.88794381     0.20500
C1300       C  0.67097778  0.82260008  0.92434878     0.02700
C1301       C  0.68327965  0.83704337  0.91853108    -0.22700
C1302       C  0.68877445  0.84113069  0.87483418     0.11900
S1303       S  0.69094173  0.83787495  0.78847134    -0.06300
C1304       C  0.70257806  0.85473939  0.81617794    -0.09800
C1305       C  0.70020885  0.85493584  0.86197392    -0.26400
S1306       S  0.66243884  0.81550784  0.97445371    -0.03600
C1307       C  0.64950488  0.79993472  0.94556473    -0.17000
C1308       C  0.65182430  0.80014363  0.89990713    -0.15000
H1309       H  0.66489807  0.80931267  0.81625053     0.20300
H1310       H  0.68821845  0.84482214  0.94669476     0.16400
H1311       H  0.70638856  0.86469758  0.88442386     0.18900
H1312       H  0.64458813  0.79144693  0.87676128     0.12200
C1313       C  0.47884824  0.75749827  0.49824227     0.16100
C1314       C  0.49686709  0.75110154  0.49343950    -0.32900
C1315       C  0.51083998  0.76410695  0.48975640     0.20500
C1316       C  0.50710940  0.78270394  0.49044228     0.02700
C1317       C  0.48900833  0.78912552  0.49511600    -0.22700
C1318       C  0.47498756  0.77607962  0.49926325     0.11900
S1319       S  0.46007446  0.74381905  0.50272521    -0.06300
C1320       C  0.44670604  0.76326759  0.50627025    -0.09800
C1321       C  0.45651616  0.77949411  0.50413302    -0.26400
S1322       S  0.52624687  0.79616642  0.48743337    -0.03600
C1323       C  0.53937000  0.77649594  0.48591801    -0.17000
C1324       C  0.52922632  0.76048264  0.48693110    -0.15000
H1325       H  0.49988687  0.73658678  0.49298975     0.20300
H1326       H  0.48600975  0.80363608  0.49601208     0.16400
H1327       H  0.45042603  0.79302120  0.50476767     0.18900
H1328       H  0.53505099  0.74683453  0.48746374     0.12200
C1329       C  0.31761582  0.81841072  0.43662610     0.16100
C1330       C  0.30474041  0.83250766  0.43040310    -0.32900
C1331       C  0.29974056  0.83670872  0.38640789     0.20500
C1332       C  0.30676842  0.82685224  0.35054147     0.02700
C1333       C  0.31959289  0.81285482  0.35675832    -0.22700
C1334       C  0.32505568  0.80911083  0.40037389     0.11900
S1335       S  0.32641596  0.81182387  0.48683620    -0.06300
C1336       C  0.34070229  0.79700698  0.45815012    -0.09800
C1337       C  0.33837560  0.79694000  0.41248535    -0.26400
S1338       S  0.29920040  0.83387250  0.29983183    -0.03600
C1339       C  0.28683512  0.85072709  0.32673371    -0.17000
C1340       C  0.28834274  0.85062298  0.37285869    -0.15000
H1341       H  0.29925960  0.84017471  0.45845122     0.20300
H1342       H  0.32545648  0.80552378  0.32861880     0.16400
H1343       H  0.34630611  0.78867124  0.38928403     0.18900
H1344       H  0.28159012  0.86024747  0.39509735     0.12200
C1345       C  0.32693890  0.84857113  0.63578259     0.16100
C1346       C  0.33983801  0.84394855  0.60277757    -0.32900
C1347       C  0.35310828  0.83077127  0.61338542     0.20500
C1348       C  0.35364577  0.82268560  0.65511270     0.02700
C1349       C  0.34093422  0.82752983  0.68834673    -0.22700
C1350       C  0.32745606  0.84042797  0.67744132     0.11900
S1351       S  0.30976416  0.86426368  0.62965805    -0.06300
C1352       C  0.30313607  0.85969154  0.68374523    -0.09800
C1353       C  0.31369521  0.84657993  0.70489364    -0.26400
S1354       S  0.36893655  0.80508710  0.65922756    -0.03600
C1355       C  0.37433420  0.80829356  0.60373713    -0.17000
C1356       C  0.36531027  0.82290809  0.58417376    -0.15000
H1357       H  0.33923251  0.84996116  0.56985705     0.20300
H1358       H  0.34109448  0.82100578  0.72072089     0.16400
H1359       H  0.31199200  0.84247224  0.73934582     0.18900
H1360       H  0.36574107  0.82596583  0.54885465     0.12200
C1361       C  0.40380678  0.73386844  0.71845612     0.16100
C1362       C  0.41205328  0.73841816  0.75925376    -0.32900
C1363       C  0.40087753  0.73862485  0.79776864     0.20500
C1364       C  0.38250211  0.73399979  0.79562623     0.02700
C1365       C  0.37450575  0.72884610  0.75543756    -0.22700
C1366       C  0.38545444  0.72919181  0.71702664     0.11900
S1367       S  0.41384240  0.73594370  0.66679079    -0.06300
C1368       C  0.39289649  0.73101149  0.64352136    -0.09800
C1369       C  0.37924875  0.72730709  0.67446074    -0.26400
S1370       S  0.37051985  0.73721415  0.84383083    -0.03600
C1371       C  0.39034563  0.74498587  0.86766948    -0.17000
C1372       C  0.40558875  0.74468520  0.83966835    -0.15000
H1373       H  0.42620567  0.74271731  0.76046845     0.20300
H1374       H  0.36001336  0.72587450  0.75369583     0.16400
H1375       H  0.36502947  0.72501765  0.66620432     0.18900
H1376       H  0.41897263  0.74976521  0.84856440     0.12200
C1377       C  0.40819259  0.76659584  0.21987486     0.16100
C1378       C  0.41052271  0.77243850  0.26379674    -0.32900
C1379       C  0.40435160  0.76096688  0.29791385     0.20500
C1380       C  0.39627852  0.74425237  0.28913671     0.02700
C1381       C  0.39392447  0.73833780  0.24477643    -0.22700
C1382       C  0.40003631  0.74997253  0.21028522     0.11900
S1383       S  0.41424821  0.77912920  0.17447666    -0.06300
C1384       C  0.40563748  0.76199846  0.14134071    -0.09800
C1385       C  0.39853068  0.74721291  0.16490147    -0.26400
S1386       S  0.38952374  0.73269367  0.33635195    -0.03600
C1387       C  0.39759485  0.75075013  0.36766409    -0.17000
C1388       C  0.40512099  0.76472617  0.34242578    -0.15000
H1389       H  0.41669312  0.78553717  0.27108810     0.20300
H1390       H  0.38744276  0.72540272  0.23748610     0.16400
H1391       H  0.39216358  0.73541840  0.14977329     0.18900
H1392       H  0.41071828  0.77723307  0.35598160     0.12200
C1393       C  0.51473815  0.78183871  0.00765109     0.16100
C1394       C  0.49801741  0.79126907  0.01246068    -0.32900
C1395       C  0.48212275  0.78262537  0.99705016     0.20500
C1396       C  0.48297427  0.76545533  0.97735840     0.02700
C1397       C  0.49965580  0.75614782  0.97217890    -0.22700
C1398       C  0.51543856  0.76463951  0.98815747     0.11900
S1399       S  0.53556640  0.78981512  0.02423679    -0.06300
C1400       C  0.54523531  0.76966712  0.00510448    -0.09800
C1401       C  0.53284157  0.75754543  0.98685066    -0.26400
S1402       S  0.46225349  0.75650080  0.96421008    -0.03600
C1403       C  0.45213772  0.77594264  0.98586440    -0.17000
C1404       C  0.46437547  0.78887154  0.00151487    -0.15000
H1405       H  0.49738693  0.80459008  0.02823880     0.20300
H1406       H  0.50023799  0.74264491  0.95731931     0.16400
H1407       H  0.53644813  0.74445361  0.97219437     0.18900
H1408       H  0.46046124  0.80145716  0.01820009     0.12200
C1409       C  0.34464555  0.86634506  0.83656988     0.16100
C1410       C  0.35844712  0.85292502  0.83657881    -0.32900
C1411       C  0.36471016  0.84674241  0.87799453     0.20500
C1412       C  0.35818251  0.85431870  0.91749088     0.02700
C1413       C  0.34413229  0.86745834  0.91749353    -0.22700
C1414       C  0.33721498  0.87295153  0.87617423     0.11900
S1415       S  0.33408216  0.87428759  0.79002483    -0.06300
C1416       C  0.31876469  0.88572674  0.82418106    -0.09800
C1417       C  0.32211145  0.88384297  0.86931599    -0.26400
S1418       S  0.36695984  0.84461828  0.96424390    -0.03600
C1419       C  0.37861843  0.82933661  0.93057789    -0.17000
C1420       C  0.37624678  0.83214892  0.88529292    -0.15000
H1421       H  0.36344311  0.84694956  0.80570232     0.20300
H1422       H  0.33825891  0.87251753  0.94844051     0.16400
H1423       H  0.31338099  0.88925854  0.89559423     0.18900
H1424       H  0.38163816  0.82326774  0.85935325     0.12200
C1425       C  0.34107524  0.83669447  0.12774141     0.16100
C1426       C  0.33611561  0.84804965  0.16353731    -0.32900
C1427       C  0.32296366  0.86166550  0.15584820     0.20500
C1428       C  0.31529192  0.86406687  0.11414029     0.02700
C1429       C  0.32053989  0.85294396  0.07804217    -0.22700
C1430       C  0.33337142  0.83902588  0.08604984     0.11900
S1431       S  0.35651240  0.81919141  0.13069732    -0.06300
C1432       C  0.35247521  0.81480177  0.07524069    -0.09800
C1433       C  0.33972197  0.82634968  0.05581851    -0.26400
S1434       S  0.29749671  0.87922867  0.11339078    -0.03600
C1435       C  0.30005932  0.88196609  0.17011044    -0.17000
C1436       C  0.31460972  0.87227728  0.18782383    -0.15000
H1437       H  0.34176863  0.84592254  0.19638250     0.20300
H1438       H  0.31427075  0.85451367  0.04568620     0.16400
H1439       H  0.33589530  0.82598008  0.02103554     0.18900
H1440       H  0.31722098  0.87099493  0.22318275     0.12200
C1441       C  0.83103890  0.33831940  0.57222214     0.16100
C1442       C  0.84277447  0.32321817  0.57539731    -0.32900
C1443       C  0.85543160  0.32304603  0.61020016     0.20500
C1444       C  0.85658195  0.33734763  0.64038677     0.02700
C1445       C  0.84508948  0.35273727  0.63654804    -0.22700
C1446       C  0.83218352  0.35278536  0.60199722     0.11900
S1447       S  0.81433776  0.34061881  0.53329300    -0.06300
C1448       C  0.80869917  0.36136916  0.55709058    -0.09800
C1449       C  0.81938333  0.36613633  0.59337808    -0.26400
S1450       S  0.87123600  0.33322053  0.68358497    -0.03600
C1451       C  0.87551512  0.31186134  0.66108694    -0.17000
C1452       C  0.86648724  0.30865655  0.62130901    -0.15000
H1453       H  0.84167321  0.31178905  0.55257095     0.20300
H1454       H  0.84569956  0.36384459  0.66040057     0.16400
H1455       H  0.81809136  0.37882047  0.61185438     0.18900
H1456       H  0.86652231  0.29568679  0.60377511     0.12200
C1457       C  0.83951042  0.37221299  0.35930238     0.16100
C1458       C  0.84902340  0.36305313  0.32497107    -0.32900
C1459       C  0.86316722  0.35097317  0.33709477     0.20500
C1460       C  0.86759968  0.34804590  0.38134647     0.02700
C1461       C  0.85870666  0.35788212  0.41544362    -0.22700
C1462       C  0.84461953  0.36999324  0.40336063     0.11900
S1463       S  0.81987081  0.38483035  0.35260441    -0.06300
C1464       C  0.81893934  0.38763153  0.40965247    -0.09800
C1465       C  0.83315404  0.37916730  0.43215454    -0.26400
S1466       S  0.88253779  0.33024736  0.38961399    -0.03600
C1467       C  0.88331544  0.32711953  0.33275704    -0.17000
C1468       C  0.87254332  0.33935547  0.30907943    -0.15000
H1469       H  0.84487183  0.36442289  0.29056577     0.20300
H1470       H  0.86185769  0.35538421  0.45010980     0.16400
H1471       H  0.83401180  0.37826673  0.46812326     0.18900
H1472       H  0.87024374  0.33853486  0.27351619     0.12200
C1473       C  0.73995590  0.40985385  0.78287560     0.16100
C1474       C  0.73415727  0.40663165  0.73889621    -0.32900
C1475       C  0.74540341  0.41289704  0.70373807     0.20500
C1476       C  0.76158941  0.42205613  0.71218467     0.02700
C1477       C  0.76731614  0.42531735  0.75591521    -0.22700
C1478       C  0.75621337  0.41893226  0.79085458     0.11900
S1479       S  0.72886028  0.40274798  0.83046515    -0.06300
C1480       C  0.74648832  0.41190574  0.86115676    -0.09800
C1481       C  0.76000563  0.42013167  0.83540477    -0.26400
S1482       S  0.77376184  0.42792097  0.66562625    -0.03600
C1483       C  0.75700429  0.41788707  0.63385765    -0.17000
C1484       C  0.74264057  0.41052043  0.65866379    -0.15000
H1485       H  0.72162093  0.39929290  0.73237473     0.20300
H1486       H  0.78009851  0.43223244  0.76243714     0.16400
H1487       H  0.77227662  0.42630978  0.84859864     0.18900
H1488       H  0.73114737  0.40328824  0.64458146     0.12200
C1489       C  0.72736107  0.41270601  0.21276841     0.16100
C1490       C  0.73039759  0.42104085  0.25437722    -0.32900
C1491       C  0.73025603  0.40979326  0.29241805     0.20500
C1492       C  0.72670878  0.39121819  0.28902587     0.02700
C1493       C  0.72318993  0.38303947  0.24784749    -0.22700
C1494       C  0.72390616  0.39411830  0.20993427     0.11900
S1495       S  0.72974579  0.42318246  0.16196715    -0.06300
C1496       C  0.72663412  0.40214931  0.13706465    -0.09800
C1497       C  0.72330412  0.38806277  0.16683974    -0.26400
S1498       S  0.72922647  0.37937698  0.33729053    -0.03600
C1499       C  0.73542483  0.39952080  0.36274573    -0.17000
C1500       C  0.73503082  0.41473717  0.33513775    -0.15000
H1501       H  0.73377511  0.43541016  0.25669194     0.20300
H1502       H  0.72110409  0.36842274  0.24517174     0.16400
H1503       H  0.72191635  0.37381617  0.15752653     0.18900
H1504       H  0.73933572  0.42830698  0.34488479     0.12200
C1505       C  0.82942561  0.36116290  0.10792680     0.16100
C1506       C  0.84443171  0.34920938  0.11021951    -0.32900
C1507       C  0.84537435  0.33753083  0.14709654     0.20500
C1508       C  0.83219576  0.33806581  0.18065678     0.02700
C1509       C  0.81739735  0.35021878  0.17876335    -0.22700
C1510       C  0.81621789  0.36156406  0.14140987     0.11900
S1511       S  0.82444376  0.37450399  0.06312446    -0.06300
C1512       C  0.80404926  0.38016262  0.08906764    -0.09800
C1513       C  0.80173133  0.37261977  0.13104191    -0.26400
S1514       S  0.83551651  0.32269013  0.22222689    -0.03600
C1515       C  0.85486835  0.31535458  0.19413427    -0.17000
C1516       C  0.85849609  0.32447546  0.15466062    -0.15000
H1517       H  0.85453002  0.34854456  0.08361679     0.20300
H1518       H  0.80690516  0.35035085  0.20449790     0.16400
H1519       H  0.78933047  0.37370947  0.15096194     0.18900
H1520       H  0.87023475  0.32193435  0.13319675     0.12200
C1521       C  0.81109084  0.32712553  0.92084630     0.16100
C1522       C  0.82543137  0.31450727  0.91536224    -0.32900
C1523       C  0.83055234  0.30983886  0.87165180     0.20500
C1524       C  0.82133340  0.31687954  0.83519678     0.02700
C1525       C  0.80708253  0.32951528  0.84068428    -0.22700
C1526       C  0.80243472  0.33469926  0.88419982     0.11900
S1527       S  0.80361868  0.33552446  0.97085062    -0.06300
C1528       C  0.78932717  0.34987389  0.94174128    -0.09800
C1529       C  0.79001595  0.34790782  0.89599559    -0.26400
S1530       S  0.82952103  0.30966102  0.78490460    -0.03600
C1531       C  0.84598595  0.29756674  0.81309784    -0.17000
C1532       C  0.84492651  0.29882164  0.85910464    -0.15000
H1533       H  0.83262572  0.30901413  0.94380141     0.20300
H1534       H  0.80028615  0.33546452  0.81220091     0.16400
H1535       H  0.78222692  0.35605373  0.87267945     0.18900
H1536       H  0.85423829  0.29219518  0.88193634     0.12200
C1537       C  0.67562346  0.67506936  0.52220332     0.16100
C1538       C  0.65825185  0.68295208  0.51707916    -0.32900
C1539       C  0.65675350  0.70202123  0.52098202     0.20500
C1540       C  0.67177006  0.71279691  0.53070297     0.02700
C1541       C  0.68910769  0.70485650  0.53683325    -0.22700
C1542       C  0.69070557  0.68579910  0.53167610     0.11900
S1543       S  0.68058413  0.65247638  0.51357858    -0.06300
C1544       C  0.70331298  0.65751790  0.52175388    -0.09800
C1545       C  0.70664214  0.67576764  0.53172039    -0.26400
S1546       S  0.66727501  0.73581009  0.53039134    -0.03600
C1547       C  0.64501018  0.73082497  0.51629230    -0.17000
C1548       C  0.64136691  0.71225847  0.51314690    -0.15000
H1549       H  0.64655534  0.67466384  0.50841970     0.20300
H1550       H  0.70097727  0.71324311  0.54327664     0.16400
H1551       H  0.72010965  0.68156153  0.53640609     0.18900
H1552       H  0.62831634  0.70655097  0.50358410     0.12200
C1553       C  0.75071680  0.52314064  0.47038650     0.16100
C1554       C  0.74443413  0.50509400  0.46994811    -0.32900
C1555       C  0.75750238  0.49102331  0.47010710     0.20500
C1556       C  0.77610499  0.49463490  0.46962442     0.02700
C1557       C  0.78244675  0.51281687  0.46924934    -0.22700
C1558       C  0.76928817  0.52699260  0.47014881     0.11900
S1559       S  0.73683302  0.54184485  0.47493013    -0.06300
C1560       C  0.75612845  0.55524396  0.47732808    -0.09800
C1561       C  0.77250532  0.54552062  0.47370336    -0.26400
S1562       S  0.78956497  0.47534210  0.47280893    -0.03600
C1563       C  0.76983823  0.46243687  0.47566478    -0.17000
C1564       C  0.75386433  0.47272427  0.47334390    -0.15000
H1565       H  0.72992351  0.50213537  0.47122863     0.20300
H1566       H  0.79695131  0.51577324  0.46993542     0.16400
H1567       H  0.78597428  0.55156419  0.47584293     0.18900
H1568       H  0.74017950  0.46713515  0.47562711     0.12200
C1569       C  0.82258708  0.65476865  0.39704831     0.16100
C1570       C  0.83559478  0.66881241  0.39620466    -0.32900
C1571       C  0.83470411  0.68144130  0.36111006     0.20500
C1572       C  0.82169102  0.67995697  0.32795624     0.02700
C1573       C  0.80900225  0.66570834  0.32823830    -0.22700
C1574       C  0.80968451  0.65329266  0.36364756     0.11900
S1575       S  0.81937217  0.63992286  0.44028166    -0.06300
C1576       C  0.80002336  0.63219265  0.41385078    -0.09800
C1577       C  0.79702486  0.64008805  0.37254792    -0.26400
S1578       S  0.82286664  0.69649770  0.28815876    -0.03600
C1579       C  0.84133638  0.70541769  0.31591402    -0.17000
C1580       C  0.84600142  0.69610251  0.35447269    -0.15000
H1581       H  0.84552389  0.67023146  0.42256549     0.20300
H1582       H  0.79865935  0.66468416  0.30271708     0.16400
H1583       H  0.78488434  0.63795139  0.35273278     0.18900
H1584       H  0.85763379  0.69929209  0.37518761     0.12200
C1585       C  0.80414740  0.67172364  0.62655393     0.16100
C1586       C  0.81272834  0.67891662  0.66414208    -0.32900
C1587       C  0.82719730  0.69108446  0.65704768     0.20500
C1588       C  0.83305331  0.69578489  0.61448893     0.02700
C1589       C  0.82415301  0.68894422  0.57685446    -0.22700
C1590       C  0.80953483  0.67690507  0.58395725     0.11900
S1591       S  0.78729932  0.65567242  0.62811672    -0.06300
C1592       C  0.78721406  0.65631400  0.57086056    -0.09800
C1593       C  0.79960109  0.66829932  0.55175086    -0.26400
S1594       S  0.85172669  0.70977628  0.61317328    -0.03600
C1595       C  0.85123979  0.70959560  0.67048728    -0.17000
C1596       C  0.83743852  0.69918117  0.68932480    -0.15000
H1597       H  0.80855463  0.67492647  0.69744522     0.20300
H1598       H  0.82863149  0.69256777  0.54353342     0.16400
H1599       H  0.80182175  0.66991798  0.51622966     0.18900
H1600       H  0.83533193  0.69727423  0.72480538     0.12200
C1601       C  0.68630793  0.66575116  0.96848446     0.16100
C1602       C  0.66799482  0.67168953  0.96927586    -0.32900
C1603       C  0.66468576  0.69059286  0.97144508     0.20500
C1604       C  0.67903186  0.70296122  0.97139722     0.02700
C1605       C  0.69729062  0.69704774  0.96963334    -0.22700
C1606       C  0.70059564  0.67818073  0.96882763     0.11900
S1607       S  0.69315591  0.64347823  0.97171967    -0.06300
C1608       C  0.71546819  0.65100661  0.97467197    -0.09800
C1609       C  0.71738929  0.66980209  0.97189227    -0.26400
S1610       S  0.67245860  0.72515021  0.97759219    -0.03600
C1611       C  0.65008393  0.71782697  0.98125062    -0.17000
C1612       C  0.64793719  0.69907250  0.97683406    -0.15000
H1613       H  0.65684925  0.66198150  0.97034765     0.20300
H1614       H  0.70844909  0.70673095  0.97099395     0.16400
H1615       H  0.73024927  0.67699995  0.97484489     0.18900
H1616       H  0.63499080  0.69198813  0.97951392     0.12200
C1617       C  0.75467610  0.58624366  0.78583454     0.16100
C1618       C  0.76048880  0.58297694  0.74197416    -0.32900
C1619       C  0.74967158  0.58983636  0.70748476     0.20500
C1620       C  0.73357409  0.59936413  0.71602169     0.02700
C1621       C  0.72765552  0.60256625  0.76018016    -0.22700
C1622       C  0.73865653  0.59584977  0.79491345     0.11900
S1623       S  0.76673600  0.58005345  0.83174325    -0.06300
C1624       C  0.75020650  0.59060062  0.86414843    -0.09800
C1625       C  0.73594144  0.59833149  0.84007616    -0.26400
S1626       S  0.72291590  0.60711150  0.66887074    -0.03600
C1627       C  0.74050141  0.59756092  0.63766926    -0.17000
C1628       C  0.75368740  0.58876966  0.66290156    -0.15000
H1629       H  0.77318472  0.57576513  0.73502212     0.20300
H1630       H  0.71527463  0.61029427  0.76714571     0.16400
H1631       H  0.72468943  0.60603664  0.85465048     0.18900
H1632       H  0.76591446  0.58232843  0.64936171     0.12200
C1633       C  0.73023086  0.62556570  0.21132100     0.16100
C1634       C  0.72825895  0.63418055  0.25278818    -0.32900
C1635       C  0.72677742  0.62307755  0.29057307     0.20500
C1636       C  0.72701640  0.60416715  0.28738388     0.02700
C1637       C  0.72885478  0.59549141  0.24560678    -0.22700
C1638       C  0.73054599  0.60665539  0.20759847     0.11900
S1639       S  0.73355205  0.63685685  0.16245234    -0.06300
C1640       C  0.73554063  0.61597059  0.13605202    -0.09800
C1641       C  0.73348014  0.60100976  0.16415658    -0.26400
S1642       S  0.72621746  0.59330536  0.33795886    -0.03600
C1643       C  0.72582341  0.61450315  0.36340467    -0.17000
C1644       C  0.72603725  0.62905378  0.33383583    -0.15000
H1645       H  0.72841051  0.64894892  0.25560085     0.20300
H1646       H  0.72944772  0.58073191  0.24298438     0.16400
H1647       H  0.73487225  0.58687919  0.15377749     0.18900
H1648       H  0.72656923  0.64331746  0.34354480     0.12200
C1649       C  0.75526131  0.51799582  0.03097125     0.16100
C1650       C  0.74655055  0.50104025  0.03220197    -0.32900
C1651       C  0.75738042  0.48539176  0.02692592     0.20500
C1652       C  0.77622545  0.48642785  0.02182130     0.02700
C1653       C  0.78506338  0.50353511  0.02105945    -0.22700
C1654       C  0.77407039  0.51935496  0.02525971     0.11900
S1655       S  0.74393680  0.53829762  0.03235321    -0.06300
C1656       C  0.76459464  0.54911275  0.02429927    -0.09800
C1657       C  0.77959843  0.53734747  0.02168862    -0.26400
S1658       S  0.78658378  0.46556093  0.01391376    -0.03600
C1659       C  0.76516693  0.45562368  0.01630954    -0.17000
C1660       C  0.75100640  0.46788231  0.02383939    -0.15000
H1661       H  0.73180197  0.50011618  0.03545151     0.20300
H1662       H  0.79971774  0.50448392  0.01589738     0.16400
H1663       H  0.79352258  0.54162245  0.01498621     0.18900
H1664       H  0.73666467  0.46422600  0.02567999     0.12200
C1665       C  0.85321673  0.66932362  0.84281833     0.16100
C1666       C  0.84094085  0.65452288  0.84521244    -0.32900
C1667       C  0.82749677  0.65490253  0.87923947     0.20500
C1668       C  0.82644022  0.66938208  0.90908769     0.02700
C1669       C  0.83886692  0.68377242  0.90734252    -0.22700
C1670       C  0.85222218  0.68335882  0.87382301     0.11900
S1671       S  0.86905922  0.67305908  0.80124904    -0.06300
C1672       C  0.87411296  0.69375241  0.82616179    -0.09800
C1673       C  0.86437664  0.69701034  0.86521051    -0.26400
S1674       S  0.80933945  0.66789022  0.94747052    -0.03600
C1675       C  0.80354488  0.64717816  0.92443919    -0.17000
C1676       C  0.81431418  0.64192689  0.88805791    -0.15000
H1677       H  0.84155440  0.64348936  0.82112283     0.20300
H1678       H  0.83793466  0.69505698  0.93071287     0.16400
H1679       H  0.86477212  0.70968378  0.88396200     0.18900
H1680       H  0.81298856  0.62912587  0.87019987     0.12200
C1681       C  0.83954854  0.64699426  0.08630430     0.16100
C1682       C  0.85244159  0.66118901  0.08656422    -0.32900
C1683       C  0.85683349  0.66901277  0.12784435     0.20500
C1684       C  0.84940276  0.66229859  0.16721274     0.02700
C1685       C  0.83626487  0.64837251  0.16688044    -0.22700
C1686       C  0.83120736  0.64118575  0.12545840     0.11900
S1687       S  0.83105171  0.63709213  0.03938779    -0.06300
C1688       C  0.81537033  0.62582042  0.07249157    -0.09800
C1689       C  0.81709155  0.62925544  0.11769927    -0.26400
S1690       S  0.85618270  0.67364306  0.21376126    -0.03600
C1691       C  0.86829965  0.68833692  0.17990400    -0.17000
C1692       C  0.86745285  0.68425589  0.13482194    -0.15000
H1693       H  0.85816571  0.66644279  0.05575491     0.20300
H1694       H  0.82969792  0.64390053  0.19745302     0.16400
H1695       H  0.80775410  0.62429259  0.14312345     0.18900
H1696       H  0.87359152  0.69240791  0.10861968     0.12200
C1697       C  0.16420265  0.65476472  0.62885923     0.16100
C1698       C  0.15176773  0.65923216  0.66305145    -0.32900
C1699       C  0.13895262  0.67311805  0.65466067     0.20500
C1700       C  0.13820562  0.68174720  0.61357910     0.02700
C1701       C  0.15033461  0.67695871  0.57907279    -0.22700
C1702       C  0.16356856  0.66359220  0.58804246     0.11900
S1703       S  0.18133033  0.63894086  0.63300827    -0.06300
C1704       C  0.18794795  0.64460070  0.57951548    -0.09800
C1705       C  0.17724184  0.65792189  0.55970784    -0.26400
S1706       S  0.12378574  0.70007497  0.61199810    -0.03600
C1707       C  0.11919562  0.69658522  0.66777357    -0.17000
C1708       C  0.12771001  0.68132277  0.68565851    -0.15000
H1709       H  0.15260489  0.65277600  0.69543364     0.20300
H1710       H  0.15012544  0.68406372  0.54743444     0.16400
H1711       H  0.17895525  0.66271441  0.52579228     0.18900
H1712       H  0.12767577  0.67793832  0.72080220     0.12200
C1713       C  0.14760746  0.64049872  0.42068436     0.16100
C1714       C  0.13349259  0.65360741  0.41992214    -0.32900
C1715       C  0.12780310  0.66007841  0.37820971     0.20500
C1716       C  0.13533853  0.65321698  0.33899815     0.02700
C1717       C  0.14971669  0.64040811  0.33979483    -0.22700
C1718       C  0.15589936  0.63448422  0.38154022     0.11900
S1719       S  0.15735628  0.63206478  0.46791261    -0.06300
C1720       C  0.17338444  0.62105051  0.43483851    -0.09800
C1721       C  0.17091129  0.62355870  0.38945862    -0.26400
S1722       S  0.12703626  0.66318222  0.29189973    -0.03600
C1723       C  0.11391915  0.67741931  0.32519826    -0.17000
C1724       C  0.11573025  0.67422112  0.37053648    -0.15000
H1725       H  0.12769629  0.65903698  0.45057626     0.20300
H1726       H  0.15626625  0.63580474  0.30922629     0.16400
H1727       H  0.18015961  0.61849062  0.36382367     0.18900
H1728       H  0.10943986  0.68251630  0.39644661     0.12200
C1729       C  0.30425015  0.66368119  0.50665867     0.16100
C1730       C  0.32253794  0.66943585  0.50566908    -0.32900
C1731       C  0.32585635  0.68820151  0.50093997     0.20500
C1732       C  0.31155995  0.70062139  0.49684813     0.02700
C1733       C  0.29328488  0.69484127  0.49727323    -0.22700
C1734       C  0.28996545  0.67611269  0.50264149     0.11900
S1735       S  0.29743494  0.64156223  0.51242668    -0.06300
C1736       C  0.27506614  0.64907977  0.50951825    -0.09800
C1737       C  0.27314120  0.66782356  0.50438731    -0.26400
S1738       S  0.31827363  0.72285813  0.49438835    -0.03600
C1739       C  0.34060244  0.71544706  0.49952716    -0.17000
C1740       C  0.34262778  0.69662224  0.50203626    -0.15000
H1741       H  0.33367846  0.65973634  0.50917470     0.20300
H1742       H  0.28213278  0.70456977  0.49445225     0.16400
H1743       H  0.26019286  0.67491496  0.50074674     0.18900
H1744       H  0.35552877  0.68957046  0.50682549     0.12200
C1745       C  0.17800748  0.64694823  0.14353007     0.16100
C1746       C  0.17304651  0.65931997  0.17712703    -0.32900
C1747       C  0.15875315  0.67153062  0.16834534     0.20500
C1748       C  0.14939188  0.67117000  0.12836228     0.02700
C1749       C  0.15434299  0.65871818  0.09462188    -0.22700
C1750       C  0.16897914  0.64671622  0.10305876     0.11900
S1751       S  0.19660293  0.63295247  0.14592326    -0.06300
C1752       C  0.19278667  0.62717408  0.09112126    -0.09800
C1753       C  0.17724245  0.63508484  0.07295946    -0.26400
S1754       S  0.13185666  0.68667746  0.12546197    -0.03600
C1755       C  0.13743433  0.69377132  0.17847724    -0.17000
C1756       C  0.15216696  0.68462398  0.19686137    -0.15000
H1757       H  0.18038973  0.65978081  0.20831507     0.20300
H1758       H  0.14738066  0.65866545  0.06290602     0.16400
H1759       H  0.17356358  0.63421559  0.03812159     0.18900
H1760       H  0.15718693  0.68677079  0.23032885     0.12200
C1761       C  0.16837121  0.69905308  0.87967524     0.16100
C1762       C  0.17677359  0.69208009  0.91775305    -0.32900
C1763       C  0.18871205  0.67721768  0.91207982     0.20500
C1764       C  0.19228697  0.66969156  0.87039631     0.02700
C1765       C  0.18441912  0.67711896  0.83210515    -0.22700
C1766       C  0.17236126  0.69189515  0.83779492     0.11900
S1767       S  0.15169624  0.71542662  0.88019677    -0.06300
C1768       C  0.15029914  0.71267057  0.82341836    -0.09800
C1769       C  0.16226327  0.69997862  0.80513680    -0.26400
S1770       S  0.20580949  0.65060438  0.87115945    -0.03600
C1771       C  0.20680745  0.65301610  0.92811792    -0.17000
C1772       C  0.19724681  0.66784689  0.94529531    -0.15000
H1773       H  0.17356951  0.69749707  0.95054472     0.20300
H1774       H  0.18700604  0.67118973  0.79953469     0.16400
H1775       H  0.16269370  0.69608136  0.77028203     0.18900
H1776       H  0.19608066  0.67119078  0.98040513     0.12200
C1777       C  0.33525890  0.69818301  0.00359421     0.16100
C1778       C  0.33047225  0.67963613  0.00374204    -0.32900
C1779       C  0.31260652  0.67508524  0.99144568     0.20500
C1780       C  0.30014712  0.68845146  0.97894014     0.02700
C1781       C  0.30500666  0.70702181  0.97827154    -0.22700
C1782       C  0.32281694  0.71159976  0.99131374     0.11900
S1783       S  0.35625842  0.70628328  0.01733409    -0.06300
C1784       C  0.34834634  0.72808100  0.00661393    -0.09800
C1785       C  0.33022167  0.72887726  0.99320153    -0.26400
S1786       S  0.27876730  0.68032886  0.96869321    -0.03600
C1787       C  0.28654344  0.65872220  0.98231977    -0.17000
C1788       C  0.30495328  0.65794585  0.99292525    -0.15000
H1789       H  0.34017732  0.66922697  0.01380671     0.20300
H1790       H  0.29520477  0.71746402  0.96897750     0.16400
H1791       H  0.32314411  0.74126292  0.98343897     0.18900
H1792       H  0.31200321  0.64578101  0.00429132     0.12200
C1793       C  0.26135759  0.59563395  0.78895402     0.16100
C1794       C  0.26648163  0.59952696  0.74455018    -0.32900
C1795       C  0.25531148  0.59278882  0.71014253     0.20500
C1796       C  0.24000943  0.58231090  0.71973869     0.02700
C1797       C  0.23512565  0.57814641  0.76383108    -0.22700
C1798       C  0.24597714  0.58522443  0.79804803     0.11900
S1799       S  0.27179221  0.60402075  0.83583447    -0.06300
C1800       C  0.25498227  0.59369999  0.86776207    -0.09800
C1801       C  0.24233967  0.58400087  0.84287431    -0.26400
S1802       S  0.22737143  0.57655061  0.67433380    -0.03600
C1803       C  0.24262736  0.58851947  0.64145780    -0.17000
C1804       C  0.25699286  0.59628012  0.66502889    -0.15000
H1805       H  0.27821532  0.60803615  0.73722848     0.20300
H1806       H  0.22290534  0.57034697  0.77123622     0.16400
H1807       H  0.23052199  0.57708690  0.85678148     0.18900
H1808       H  0.26755867  0.60472875  0.65029389     0.12200
C1809       C  0.26263400  0.59937887  0.29027234     0.16100
C1810       C  0.26530438  0.59223800  0.24697979    -0.32900
C1811       C  0.26735817  0.60475868  0.21157671     0.20500
C1812       C  0.26726606  0.62345709  0.21942013     0.02700
C1813       C  0.26489907  0.63051746  0.26244281    -0.22700
C1814       C  0.26229319  0.61811203  0.29733552     0.11900
S1815       S  0.25815712  0.58684577  0.33751043    -0.06300
C1816       C  0.25526362  0.60716047  0.36628608    -0.09800
C1817       C  0.25810002  0.62261043  0.34052601    -0.26400
S1818       S  0.26817614  0.63656246  0.17267142    -0.03600
C1819       C  0.26829325  0.61678759  0.14137951    -0.17000
C1820       C  0.26813122  0.60080639  0.16655282    -0.15000
H1821       H  0.26500115  0.57764265  0.24092305     0.20300
H1822       H  0.26423726  0.64513447  0.26818561     0.16400
H1823       H  0.25660189  0.63652305  0.35253419     0.18900
H1824       H  0.26722716  0.58715877  0.15270028     0.12200
C1825       C  0.17047097  0.33592342  0.32496067     0.16100
C1826       C  0.18334843  0.34997928  0.32658312    -0.32900
C1827       C  0.18194851  0.36247780  0.36188087     0.20500
C1828       C  0.16821256  0.36125117  0.39387776     0.02700
C1829       C  0.15510503  0.34736822  0.39177966    -0.22700
C1830       C  0.15671129  0.33465528  0.35690624     0.11900
S1831       S  0.16982577  0.31946186  0.28473597    -0.06300
C1832       C  0.15066274  0.31085238  0.31094132    -0.09800
C1833       C  0.14539271  0.32016531  0.34927872    -0.26400
S1834       S  0.17061851  0.37596144  0.43764853    -0.03600
C1835       C  0.19089687  0.38308066  0.41380400    -0.17000
C1836       C  0.19463311  0.37538193  0.37239084    -0.15000
H1837       H  0.19433202  0.35080254  0.30218225     0.20300
H1838       H  0.14454896  0.34610830  0.41715271     0.16400
H1839       H  0.13328877  0.31716317  0.36900960     0.18900
H1840       H  0.20737592  0.37712035  0.35413842     0.12200
C1841       C  0.16751179  0.33784849  0.57026380     0.16100
C1842       C  0.15348352  0.32490825  0.57025676    -0.32900
C1843       C  0.14069960  0.32557079  0.60528642     0.20500
C1844       C  0.14151148  0.33878725  0.63837814     0.02700
C1845       C  0.15523346  0.35214537  0.63757337    -0.22700
C1846       C  0.16835297  0.35115775  0.60315307     0.11900
S1847       S  0.18500257  0.33847898  0.53231896    -0.06300
C1848       C  0.19369471  0.35683105  0.56111454    -0.09800
C1849       C  0.18335299  0.36216573  0.59797448    -0.26400
S1850       S  0.12660819  0.33531452  0.68175650    -0.03600
C1851       C  0.11978763  0.31544915  0.65584567    -0.17000
C1852       C  0.12793863  0.31249629  0.61448830    -0.15000
H1853       H  0.15308438  0.31421375  0.54525906     0.20300
H1854       H  0.15624096  0.36222033  0.66392911     0.16400
H1855       H  0.18646788  0.37367556  0.61933705     0.18900
H1856       H  0.12642455  0.30011907  0.59496223     0.12200
C1857       C  0.24262270  0.48607214  0.48047008     0.16100
C1858       C  0.24910520  0.50394439  0.47757809    -0.32900
C1859       C  0.23621014  0.51810022  0.47948922     0.20500
C1860       C  0.21759418  0.51476268  0.48334517     0.02700
C1861       C  0.21103840  0.49678780  0.48534979    -0.22700
C1862       C  0.22402000  0.48256535  0.48412891     0.11900
S1863       S  0.25632313  0.46721955  0.48305818    -0.06300
C1864       C  0.23682684  0.45439279  0.48935403    -0.09800
C1865       C  0.22058461  0.46428257  0.48874988    -0.26400
S1866       S  0.20443436  0.53408795  0.48859920    -0.03600
C1867       C  0.22434650  0.54659006  0.48621516    -0.17000
C1868       C  0.24012246  0.53626471  0.48075452    -0.15000
H1869       H  0.26364243  0.50672858  0.47561534     0.20300
H1870       H  0.19656128  0.49402875  0.48928127     0.16400
H1871       H  0.20708419  0.45849405  0.49345776     0.18900
H1872       H  0.25388198  0.54173494  0.47984837     0.12200
C1873       C  0.17986329  0.33397483  0.91750909     0.16100
C1874       C  0.16724463  0.31984509  0.91053476    -0.32900
C1875       C  0.16228043  0.31586844  0.86647174     0.20500
C1876       C  0.16995580  0.32520293  0.83077659     0.02700
C1877       C  0.18241930  0.33951223  0.83778591    -0.22700
C1878       C  0.18699881  0.34383395  0.88199958     0.11900
S1879       S  0.18723372  0.34110156  0.96853553    -0.06300
C1880       C  0.19959779  0.35799707  0.94211283    -0.09800
C1881       C  0.19819846  0.35780348  0.89595226    -0.26400
S1882       S  0.16229965  0.31811157  0.77985817    -0.03600
C1883       C  0.14815364  0.30284869  0.80699995    -0.17000
C1884       C  0.14958464  0.30319459  0.85307627    -0.15000
H1885       H  0.16132915  0.31245351  0.93834999     0.20300
H1886       H  0.18807895  0.34712517  0.81001840     0.16400
H1887       H  0.20489686  0.36743420  0.87388620     0.18900
H1888       H  0.14164587  0.29472208  0.87555672     0.12200
C1889       C  0.16173065  0.37396264  0.14482384     0.16100
C1890       C  0.15267405  0.36494272  0.17973343    -0.32900
C1891       C  0.13889918  0.35247839  0.16844235     0.20500
C1892       C  0.13417875  0.34928155  0.12444016     0.02700
C1893       C  0.14250515  0.35907907  0.08977125    -0.22700
C1894       C  0.15643896  0.37134721  0.10099596     0.11900
S1895       S  0.18132167  0.38645173  0.15058840    -0.06300
C1896       C  0.18212583  0.38842306  0.09343454    -0.09800
C1897       C  0.16781273  0.38002470  0.07151819    -0.26400
S1898       S  0.12013156  0.33090370  0.11696370    -0.03600
C1899       C  0.12038767  0.32770528  0.17374631    -0.17000
C1900       C  0.13057790  0.34046512  0.19696253    -0.15000
H1901       H  0.15711992  0.36648799  0.21387412     0.20300
H1902       H  0.13927464  0.35622566  0.05529883     0.16400
H1903       H  0.16691767  0.37865118  0.03563495     0.18900
H1904       H  0.13349188  0.33964098  0.23226021     0.12200
C1905       C  0.23835287  0.42134110  0.79535440     0.16100
C1906       C  0.23123266  0.42381011  0.75266508    -0.32900
C1907       C  0.24159777  0.41738738  0.71645130     0.20500
C1908       C  0.25851180  0.40909899  0.72223168     0.02700
C1909       C  0.26572910  0.40668458  0.76521858    -0.22700
C1910       C  0.25516134  0.41288771  0.80175077     0.11900
S1911       S  0.22705463  0.42713317  0.84306007    -0.06300
C1912       C  0.24489016  0.41780132  0.87271272    -0.09800
C1913       C  0.25908096  0.41087067  0.84640843    -0.26400
S1914       S  0.26859147  0.40186802  0.67346608    -0.03600
C1915       C  0.24967250  0.40992912  0.64537758    -0.17000
C1916       C  0.23646560  0.41788079  0.67269211    -0.15000
H1917       H  0.21793347  0.43009257  0.74795247     0.20300
H1918       H  0.27877330  0.39991104  0.77000791     0.16400
H1919       H  0.27111821  0.40402234  0.85913441     0.18900
H1920       H  0.22358197  0.42346114  0.66121214     0.12200
C1921       C  0.27258617  0.38847957  0.29465158     0.16100
C1922       C  0.27379321  0.38164143  0.25123854    -0.32900
C1923       C  0.27046115  0.39374830  0.21623199     0.20500
C1924       C  0.26672022  0.41211080  0.22369390     0.02700
C1925       C  0.26590355  0.41911253  0.26744643    -0.22700
C1926       C  0.26867968  0.40677391  0.30281045     0.11900
S1927       S  0.27351456  0.37514603  0.34093281    -0.06300
C1928       C  0.26839044  0.39423799  0.37223730    -0.09800
C1929       C  0.26645289  0.41024187  0.34770998    -0.26400
S1930       S  0.26138152  0.42398293  0.17621052    -0.03600
C1931       C  0.26357347  0.40376471  0.14684049    -0.17000
C1932       C  0.26876452  0.38894572  0.17245894    -0.15000
H1933       H  0.27617503  0.36722100  0.24509197     0.20300
H1934       H  0.26231568  0.43327534  0.27369512     0.16400
H1935       H  0.26226963  0.42330745  0.36157745     0.18900
H1936       H  0.27012034  0.37507341  0.16006648     0.12200
C1937       C  0.24627786  0.52220764  0.04628047     0.16100
C1938       C  0.25311977  0.50432152  0.04865901    -0.32900
C1939       C  0.24058904  0.48992491  0.04560243     0.20500
C1940       C  0.22192736  0.49309428  0.04238865     0.02700
C1941       C  0.21499351  0.51107463  0.04152681    -0.22700
C1942       C  0.22764670  0.52553869  0.04261073     0.11900
S1943       S  0.25961423  0.54122366  0.04199107    -0.06300
C1944       C  0.24000303  0.55390805  0.03393005    -0.09800
C1945       C  0.22392808  0.54381820  0.03615117    -0.26400
S1946       S  0.20928305  0.47363522  0.03463042    -0.03600
C1947       C  0.22945367  0.46127471  0.03409770    -0.17000
C1948       C  0.24493992  0.47177287  0.04124739    -0.15000
H1949       H  0.26771722  0.50172334  0.04989009     0.20300
H1950       H  0.20050013  0.51365806  0.03738789     0.16400
H1951       H  0.21038272  0.54935363  0.03035256     0.18900
H1952       H  0.25882598  0.46650144  0.04088725     0.12200
C1953       C  0.69338796  0.17701081  0.36488103     0.16100
C1954       C  0.68734606  0.18761381  0.40091764    -0.32900
C1955       C  0.67192218  0.19867944  0.39459049     0.20500
C1956       C  0.66277880  0.19919677  0.35428161     0.02700
C1957       C  0.66914313  0.18896726  0.31770921    -0.22700
C1958       C  0.68467069  0.17793134  0.32401590     0.11900
S1959       S  0.71112086  0.16178955  0.36694423    -0.06300
C1960       C  0.70705349  0.15701445  0.31190293    -0.09800
C1961       C  0.69269677  0.16662337  0.29311612    -0.26400
S1962       S  0.64330821  0.21226546  0.35507592    -0.03600
C1963       C  0.64780199  0.21716274  0.41008701    -0.17000
C1964       C  0.66356347  0.20918007  0.42643393    -0.15000
H1965       H  0.69410279  0.18693116  0.43286120     0.20300
H1966       H  0.66208080  0.18925688  0.28612892     0.16400
H1967       H  0.68812337  0.16502499  0.25908050     0.18900
H1968       H  0.66818882  0.21029102  0.46053783     0.12200
C1969       C  0.66915946  0.17570432  0.66387129     0.16100
C1970       C  0.65731657  0.19065008  0.66039676    -0.32900
C1971       C  0.64508993  0.19081599  0.62482154     0.20500
C1972       C  0.64449489  0.17670768  0.59397306     0.02700
C1973       C  0.65618709  0.16152438  0.59789751    -0.22700
C1974       C  0.66861663  0.16144578  0.63337479     0.11900
S1975       S  0.68501101  0.17319279  0.70463074    -0.06300
C1976       C  0.69104507  0.15261074  0.68067773    -0.09800
C1977       C  0.68125425  0.14810994  0.64280229    -0.26400
S1978       S  0.63017646  0.18078336  0.55018467    -0.03600
C1979       C  0.62540160  0.20187011  0.57336544    -0.17000
C1980       C  0.63390981  0.20501816  0.61374999    -0.15000
H1981       H  0.65791567  0.20192391  0.68386447     0.20300
H1982       H  0.65599571  0.15053141  0.57362779     0.16400
H1983       H  0.68283058  0.13547693  0.62419564     0.18900
H1984       H  0.63344236  0.21788086  0.63179959     0.12200
C1985       C  0.67960624  0.31240628  0.47590186     0.16100
C1986       C  0.69812411  0.31732533  0.47469476    -0.32900
C1987       C  0.70290043  0.33435357  0.49247110     0.20500
C1988       C  0.68976238  0.34605436  0.51034506     0.02700
C1989       C  0.67120557  0.34103211  0.51200526    -0.22700
C1990       C  0.66642190  0.32390809  0.49435979     0.11900
S1991       S  0.67141071  0.29200697  0.45780668    -0.06300
C1992       C  0.64992463  0.29866924  0.47609462    -0.09800
C1993       C  0.64925399  0.31613088  0.49435473    -0.26400
S1994       S  0.69819010  0.36672562  0.52675140    -0.03600
C1995       C  0.71964219  0.35950640  0.50944814    -0.17000
C1996       C  0.72010248  0.34186107  0.49252007    -0.15000
H1997       H  0.70838015  0.30824800  0.46044804     0.20300
H1998       H  0.66094526  0.35012377  0.52615348     0.16400
H1999       H  0.63718842  0.32228090  0.50944290     0.18900
H2000       H  0.73212350  0.33537733  0.47803783     0.12200
C2001       C  0.64816455  0.14115024  0.83008125     0.16100
C2002       C  0.63497311  0.15515257  0.83119054    -0.32900
C2003       C  0.62877816  0.16126725  0.87303311     0.20500
C2004       C  0.63458259  0.15298821  0.91201043     0.02700
C2005       C  0.64783124  0.13897341  0.91091941    -0.22700
C2006       C  0.65490556  0.13366567  0.86911125     0.11900
S2007       S  0.65923867  0.13395120  0.78296394    -0.06300
C2008       C  0.67393671  0.12158731  0.81603078    -0.09800
C2009       C  0.66991707  0.12258513  0.86130277    -0.26400
S2010       S  0.62647127  0.16326975  0.95943682    -0.03600
C2011       C  0.61611015  0.17957950  0.92656281    -0.17000
C2012       C  0.61836469  0.17665694  0.88117270    -0.15000
H2013       H  0.63066063  0.16183461  0.80083361     0.20300
H2014       H  0.65327494  0.13335299  0.94145566     0.16400
H2015       H  0.67830916  0.11667554  0.88717975     0.18900
H2016       H  0.61383684  0.18605385  0.85564151     0.12200
C2017       C  0.65272875  0.17131460  0.11940025     0.16100
C2018       C  0.65733475  0.15870580  0.15267678    -0.32900
C2019       C  0.67178992  0.14650085  0.14361091     0.20500
C2020       C  0.68094534  0.14659639  0.10291372     0.02700
C2021       C  0.67613225  0.15895142  0.06949223    -0.22700
C2022       C  0.66208944  0.17145712  0.07901272     0.11900
S2023       S  0.63593017  0.18758469  0.12382087    -0.06300
C2024       C  0.64185848  0.19475358  0.07092299    -0.09800
C2025       C  0.65605451  0.18495284  0.05132971    -0.26400
S2026       S  0.69974934  0.13281502  0.10047421    -0.03600
C2027       C  0.69574738  0.12735483  0.15547622    -0.17000
C2028       C  0.67998611  0.13507287  0.17363671    -0.15000
H2029       H  0.65044056  0.15886740  0.18478776     0.20300
H2030       H  0.68359692  0.15937512  0.03815370     0.16400
H2031       H  0.66120794  0.18710908  0.01778737     0.18900
H2032       H  0.67619717  0.13440453  0.20859385     0.12200
C2033       C  0.67988332  0.33692422  0.99031393     0.16100
C2034       C  0.66270659  0.32857796  0.99491676    -0.32900
C2035       C  0.66217477  0.30935550  0.99585928     0.20500
C2036       C  0.67796387  0.29886698  0.99204273     0.02700
C2037       C  0.69507529  0.30719398  0.98695179    -0.22700
C2038       C  0.69561636  0.32637210  0.98630670     0.11900
S2039       S  0.68380478  0.36004125  0.99186408    -0.06300
C2040       C  0.70690299  0.35532995  0.98774618    -0.09800
C2041       C  0.71104548  0.33682432  0.98426100    -0.26400
S2042       S  0.67437411  0.27575475  0.99342630    -0.03600
C2043       C  0.65129182  0.28022266  0.99885331    -0.17000
C2044       C  0.64685536  0.29872946  0.99988811    -0.15000
H2045       H  0.65033241  0.33669291  0.99830134     0.20300
H2046       H  0.70747642  0.29908061  0.98417670     0.16400
H2047       H  0.72478828  0.33120614  0.98281516     0.18900
H2048       H  0.63304860  0.30413820  0.00213296     0.12200
C2049       C  0.59729262  0.26641950  0.78183534     0.16100
C2050       C  0.58921852  0.26883159  0.73981275    -0.32900
C2051       C  0.60092272  0.27175194  0.70301758     0.20500
C2052       C  0.61975027  0.27254002  0.70825754     0.02700
C2053       C  0.62776847  0.27015366  0.75002576    -0.22700
C2054       C  0.61615544  0.26686974  0.78642269     0.11900
S2055       S  0.58572922  0.26198132  0.83052684    -0.06300
C2056       C  0.60658927  0.26033151  0.85676444    -0.09800
C2057       C  0.62155734  0.26324356  0.82909512    -0.26400
S2058       S  0.63180960  0.27499496  0.65995613    -0.03600
C2059       C  0.61139704  0.27457042  0.63163889    -0.17000
C2060       C  0.59598954  0.27302436  0.65886614    -0.15000
H2061       H  0.57452800  0.26800775  0.73581544     0.20300
H2062       H  0.64250234  0.27030990  0.75376157     0.16400
H2063       H  0.63569380  0.26254777  0.83960541     0.18900
H2064       H  0.58211725  0.27170409  0.64688029     0.12200
C2065       C  0.58063047  0.24936113  0.20967102     0.16100
C2066       C  0.57506346  0.24479608  0.25293144    -0.32900
C2067       C  0.58176247  0.25531803  0.28812391     0.20500
C2068       C  0.59329247  0.27002497  0.28076721     0.02700
C2069       C  0.59880136  0.27472660  0.23711606    -0.22700
C2070       C  0.59228393  0.26393605  0.20167873     0.11900
S2071       S  0.57483916  0.23726847  0.16350516    -0.06300
C2072       C  0.58833260  0.25176026  0.13232888    -0.09800
C2073       C  0.59673427  0.26546447  0.15697757    -0.26400
S2074       S  0.60067530  0.28024851  0.32887644    -0.03600
C2075       C  0.58837788  0.26423750  0.35882802    -0.17000
C2076       C  0.57888618  0.25197997  0.33250894    -0.15000
H2077       H  0.56629175  0.23314513  0.25901456     0.20300
H2078       H  0.60813926  0.28593368  0.23117585     0.16400
H2079       H  0.60605128  0.27550624  0.14327549     0.18900
H2080       H  0.57096860  0.24060556  0.34522548     0.12200
C2081       C  0.36583015  0.16737334  0.64919715     0.16100
C2082       C  0.35605770  0.15953579  0.68484347    -0.32900
C2083       C  0.34312430  0.14596983  0.67486309     0.20500
C2084       C  0.34006555  0.14041432  0.63136211     0.02700
C2085       C  0.35044003  0.14764786  0.59599686    -0.22700
C2086       C  0.36333501  0.16124401  0.60593500     0.11900
S2087       S  0.37942583  0.18634070  0.65309494    -0.06300
C2088       C  0.38216759  0.18574113  0.59594704    -0.09800
C2089       C  0.37302251  0.17143151  0.57548814    -0.26400
S2090       S  0.32159332  0.12626761  0.62538612    -0.03600
C2091       C  0.31826914  0.12742277  0.68221303    -0.17000
C2092       C  0.33091989  0.13822304  0.70424469    -0.15000
H2093       H  0.35763344  0.16458410  0.71855017     0.20300
H2094       H  0.34778731  0.14367293  0.56187484     0.16400
H2095       H  0.37185021  0.16982857  0.53971594     0.18900
H2096       H  0.33017696  0.14155137  0.73942622     0.12200
C2097       C  0.33296535  0.16873974  0.43905542     0.16100
C2098       C  0.31813354  0.15668369  0.43720417    -0.32900
C2099       C  0.31777775  0.14400084  0.40209853     0.20500
C2100       C  0.33183669  0.14294767  0.37088242     0.02700
C2101       C  0.34694923  0.15474012  0.37340175    -0.22700
C2102       C  0.34702692  0.16784783  0.40779032     0.11900
S2103       S  0.33516085  0.18588735  0.47725565    -0.06300
C2104       C  0.35515868  0.19224388  0.45068277    -0.09800
C2105       C  0.35988268  0.18127701  0.41441231    -0.26400
S2106       S  0.32758993  0.12827809  0.32765907    -0.03600
C2107       C  0.30635676  0.12406865  0.35096603    -0.17000
C2108       C  0.30331919  0.13301881  0.39127759    -0.15000
H2109       H  0.30691374  0.15771888  0.46093945     0.20300
H2110       H  0.35771785  0.15432255  0.34837552     0.16400
H2111       H  0.37212082  0.18294808  0.39422344     0.18900
H2112       H  0.29038869  0.13305605  0.40926100     0.12200
C2113       C  0.33472793  0.31194176  0.49628910     0.16100
C2114       C  0.32868928  0.33019875  0.49728602    -0.32900
C2115       C  0.31022465  0.33352018  0.50799025     0.20500
C2116       C  0.29830988  0.31927095  0.51706049     0.02700
C2117       C  0.30434293  0.30102486  0.51596805    -0.22700
C2118       C  0.32280518  0.29769628  0.50535538     0.11900
S2119       S  0.35677122  0.30514299  0.48646587    -0.06300
C2120       C  0.34994925  0.28283651  0.49497879    -0.09800
C2121       C  0.33141765  0.28093462  0.50424756    -0.26400
S2122       S  0.27629215  0.32603204  0.52741938    -0.03600
C2123       C  0.28310042  0.34833573  0.51926245    -0.17000
C2124       C  0.30160753  0.35026757  0.50953562    -0.15000
H2125       H  0.33800202  0.34132810  0.49025457     0.20300
H2126       H  0.29503900  0.28990109  0.52310250     0.16400
H2127       H  0.32480857  0.26810659  0.51218642     0.18900
H2128       H  0.30820067  0.36312290  0.50176292     0.12200
C2129       C  0.48510215  0.24950153  0.53195599     0.16100
C2130       C  0.50153041  0.25928538  0.53239767    -0.32900
C2131       C  0.51790966  0.24932360  0.53061848     0.20500
C2132       C  0.51796956  0.23036346  0.52992683     0.02700
C2133       C  0.50143254  0.22049718  0.53034696    -0.22700
C2134       C  0.48493637  0.23053685  0.53070357     0.11900
S2135       S  0.46411503  0.25943052  0.52875591    -0.06300
C2136       C  0.45468898  0.23791118  0.52470290    -0.09800
C2137       C  0.46737906  0.22371374  0.52692138    -0.26400
S2138       S  0.53937595  0.22098303  0.52449689    -0.03600
C2139       C  0.54819870  0.24285640  0.52177689    -0.17000
C2140       C  0.53514457  0.25655225  0.52618596    -0.15000
H2141       H  0.50152390  0.27409619  0.53201986     0.20300
H2142       H  0.50143666  0.20570938  0.52846664     0.16400
H2143       H  0.46408094  0.20936135  0.52355610     0.18900
H2144       H  0.53800295  0.27104769  0.52411590     0.12200
C2145       C  0.30969895  0.16705901  0.13123046     0.16100
C2146       C  0.31668064  0.17543980  0.09263903    -0.32900
C2147       C  0.32933780  0.18965803  0.09805855     0.20500
C2148       C  0.33500281  0.19510903  0.14002233     0.02700
C2149       C  0.32771120  0.18701316  0.17861054    -0.22700
C2150       C  0.31486331  0.17297558  0.17321609     0.11900
S2151       S  0.29485797  0.14902930  0.13181339    -0.06300
C2152       C  0.29520796  0.14982028  0.18920058    -0.09800
C2153       C  0.30637566  0.16329921  0.20664224    -0.26400
S2154       S  0.35156808  0.21155150  0.13944237    -0.03600
C2155       C  0.35052273  0.21142925  0.08211881    -0.17000
C2156       C  0.33800100  0.19919838  0.06466688    -0.15000
H2157       H  0.31261577  0.17090903  0.05980982     0.20300
H2158       H  0.33205675  0.19129501  0.21141606     0.16400
H2159       H  0.30851193  0.16557157  0.24189892     0.18900
H2160       H  0.33593187  0.19687505  0.02940011     0.12200
C2161       C  0.32627323  0.17673868  0.83648920     0.16100
C2162       C  0.34002456  0.18997632  0.83765547    -0.32900
C2163       C  0.35265162  0.18906281  0.87249619     0.20500
C2164       C  0.35174892  0.17558063  0.90480846     0.02700
C2165       C  0.33814362  0.16212592  0.90322361    -0.22700
C2166       C  0.32539977  0.16312206  0.86850195     0.11900
S2167       S  0.30983381  0.17536741  0.79655240    -0.06300
C2168       C  0.30177333  0.15605473  0.82282470    -0.09800
C2169       C  0.31128383  0.15127294  0.86098856    -0.26400
S2170       S  0.36685872  0.17843740  0.94752516    -0.03600
C2171       C  0.37404545  0.19831196  0.92218553    -0.17000
C2172       C  0.36570717  0.20179037  0.88162817    -0.15000
H2173       H  0.34063362  0.20075828  0.81298956     0.20300
H2174       H  0.33721651  0.15165034  0.92859558     0.16400
H2175       H  0.30864071  0.13918959  0.88080986     0.18900
H2176       H  0.36750145  0.21422154  0.86249767     0.12200
C2177       C  0.31145203  0.34440356  0.00142132     0.16100
C2178       C  0.32962934  0.33830801  0.99828989    -0.32900
C2179       C  0.33353511  0.32060048  0.01339277     0.20500
C2180       C  0.31994430  0.30949666  0.03102444     0.02700
C2181       C  0.30178610  0.31559369  0.03425503    -0.22700
C2182       C  0.29786884  0.33322083  0.01874279     0.11900
S2183       S  0.30403516  0.36565141  0.98635977    -0.06300
C2184       C  0.28239755  0.35935302  0.00337331    -0.09800
C2185       C  0.28111088  0.34165225  0.01946031    -0.26400
S2186       S  0.32714066  0.28807105  0.04463371    -0.03600
C2187       C  0.34866071  0.29399668  0.02572542    -0.17000
C2188       C  0.35014260  0.31183296  0.01075016    -0.15000
H2189       H  0.34023754  0.34694247  0.98439814     0.20300
H2190       H  0.29113533  0.30688521  0.04768946     0.16400
H2191       H  0.26876357  0.33561428  0.03309497     0.18900
H2192       H  0.36234966  0.31763636  0.99582518     0.12200
C2193       C  0.38181187  0.27553919  0.79059138     0.16100
C2194       C  0.37414587  0.27590681  0.74802789    -0.32900
C2195       C  0.38570983  0.27241289  0.71154709     0.20500
C2196       C  0.40427560  0.26917418  0.71684846     0.02700
C2197       C  0.41204606  0.26900457  0.75967106    -0.22700
C2198       C  0.40031828  0.27209755  0.79650541     0.11900
S2199       S  0.36944944  0.27742644  0.83873929    -0.06300
C2200       C  0.38926294  0.27335563  0.86786357    -0.09800
C2201       C  0.40474689  0.27097848  0.84106843    -0.26400
S2202       S  0.41559605  0.26409672  0.66800010    -0.03600
C2203       C  0.39494905  0.26585399  0.64077542    -0.17000
C2204       C  0.38031187  0.27051953  0.66820701    -0.15000
H2205       H  0.35959158  0.27805703  0.74366877     0.20300
H2206       H  0.42642125  0.26591738  0.76417031     0.16400
H2207       H  0.41819645  0.26744348  0.85336436     0.18900
H2208       H  0.36625620  0.27164660  0.65728045     0.12200
C2209       C  0.40802165  0.26656409  0.21984356     0.16100
C2210       C  0.40389893  0.27207780  0.26387090    -0.32900
C2211       C  0.40900467  0.26026741  0.29880377     0.20500
C2212       C  0.41819462  0.24399310  0.29016152     0.02700
C2213       C  0.42267952  0.23875541  0.24652563    -0.22700
C2214       C  0.41718799  0.25024503  0.21177917     0.11900
S2215       S  0.40119315  0.27758269  0.17217497    -0.06300
C2216       C  0.41046816  0.25972614  0.14147845    -0.09800
C2217       C  0.41875760  0.24638293  0.16726693    -0.26400
S2218       S  0.42208428  0.23083940  0.33602586    -0.03600
C2219       C  0.41105697  0.24723233  0.36777169    -0.17000
C2220       C  0.40499328  0.26229057  0.34356475    -0.15000
H2221       H  0.39636059  0.28459018  0.27047863     0.20300
H2222       H  0.42946288  0.22582731  0.23979283     0.16400
H2223       H  0.42478090  0.23389307  0.15418980     0.18900
H2224       H  0.39750109  0.27375565  0.35769581     0.12200
C2225       C  0.48211619  0.22879522  0.97641524     0.16100
C2226       C  0.49898985  0.21946997  0.97668207    -0.32900
C2227       C  0.51503804  0.22993642  0.97390330     0.20500
C2228       C  0.51421094  0.24881962  0.96994083     0.02700
C2229       C  0.49737436  0.25811045  0.96906617    -0.22700
C2230       C  0.48137981  0.24769205  0.97302256     0.11900
S2231       S  0.46120632  0.21873979  0.98318192    -0.06300
C2232       C  0.45136790  0.24022652  0.98238692    -0.09800
C2233       C  0.46379171  0.25434109  0.97644442    -0.26400
S2234       S  0.53498687  0.25924622  0.97030806    -0.03600
C2235       C  0.54505049  0.23802950  0.97688190    -0.17000
C2236       C  0.53277463  0.22360218  0.97751881    -0.15000
H2237       H  0.49958500  0.20476155  0.98055226     0.20300
H2238       H  0.49679619  0.27289080  0.96715286     0.16400
H2239       H  0.46021169  0.26872998  0.97609533     0.18900
H2240       H  0.53651346  0.20943260  0.98282088     0.12200
loop_ 
_geom_bond_atom_site_label_1 
_geom_bond_atom_site_label_2 
_geom_bond_distance 
_geom_bond_site_symmetry_2 
_ccdc_geom_bond_type 
O1           C16   1.259       .  A
O1           Al9   1.900       .  S
C2           O12   1.265       .  A
C2            O3   1.264       .  A
C2         C2200   1.478       .  S
O3           Al5   1.923       .  S
O4            C6   1.255       .  A
O4           Al5   1.868       .  S
Al5          O13   1.873   1_556  S
Al5          O15   1.941   1_556  S
Al5          O14   1.764   1_556  S
C6           O19   1.271       .  A
C6         C2171   1.470       .  S
O7           C17   1.263       .  A
O7           Al9   1.899   1_556  S
O8           C21   1.267       .  A
O8          Al18   1.923       .  S
Al9          O22   1.925       .  S
Al9          O19   1.963   1_554  S
Al9          O14   1.771       .  S
O10          C17   1.268   1_554  A
O10         Al18   1.937       .  S
O11          C20   1.271       .  A
O11         Al18   1.955       .  S
O12         Al18   1.928   1_556  S
O13          C20   1.258       .  A
O14         Al18   1.774       .  S
O15          C16   1.265       .  A
C16        C2155   1.472       .  S
C17        C2232   1.478       .  S
C20        C2187   1.467       .  S
C21          O22   1.268       .  A
C21        C2216   1.482       .  S
O23          C38   1.271       .  A
O23         Al31   1.939       .  S
C24          O34   1.266       .  A
C24          O25   1.264       .  A
C24        C2203   1.474       .  S
O25         Al27   1.913       .  S
O26          C28   1.257       .  A
O26         Al27   1.890       .  S
Al27         O35   1.909       .  S
Al27         O37   1.910       .  S
Al27         O36   1.780       .  S
C28          O41   1.266       .  A
C28        C2136   1.479       .  S
O29          C39   1.266       .  A
O29         Al31   1.939       .  S
O30          C43   1.265       .  A
O30         Al40   1.922       .  S
Al31         O44   1.907       .  S
Al31         O41   1.939       .  S
Al31         O36   1.789       .  S
O32          C39   1.258       .  A
O32         Al40   1.895       .  S
O33          C42   1.262       .  A
O33         Al40   1.914       .  S
O34         Al40   1.924       .  S
O35          C42   1.259       .  A
O36         Al40   1.781       .  S
O37          C38   1.267       .  A
C38        C2219   1.481       .  S
C39        C2088   1.475       .  S
C42        C2120   1.476       .  S
C43          O44   1.264       .  A
C43        C2104   1.479       .  S
O45          C60   1.265       .  A
O45         Al53   1.918       .  S
C46          O56   1.267       .  A
C46          O47   1.264       .  A
C46        C2056   1.473       .  S
O47         Al49   1.909       .  S
O48          C50   1.261       .  A
O48         Al49   1.902       .  S
Al49         O57   1.902       .  S
Al49         O59   1.928   1_556  S
Al49         O58   1.778       .  S
C50          O63   1.268       .  A
C50        C2235   1.477       .  S
O51          C61   1.261       .  A
O51         Al53   1.928   1_556  S
O52          C65   1.267       .  A
O52         Al62   1.922   1_554  S
Al53         O66   1.895       .  S
Al53         O63   1.928   1_554  S
Al53         O58   1.786   1_554  S
O54          C61   1.258       .  A
O54         Al62   1.903       .  S
O55          C64   1.261       .  A
O55         Al62   1.913       .  S
O56         Al62   1.923       .  S
O57          C64   1.258       .  A
O58         Al62   1.780       .  S
O59          C60   1.267       .  A
C60        C2072   1.479       .  S
C61        C2011   1.473       .  S
C64        C2043   1.476       .  S
C65          O66   1.262       .  A
C65        C2024   1.468       .  S
O67          C82   1.258       .  A
O67         Al75   1.897       .  S
C68          O78   1.267       .  A
C68          O69   1.264       .  A
C68        C2059   1.475       .  S
O69         Al71   1.918       .  S
O70          C72   1.256       .  A
O70         Al71   1.865       .  S
Al71         O79   1.870       .  S
Al71         O81   1.916       .  S
Al71         O80   1.757       .  S
C72          O85   1.269       .  A
C72        C1979   1.467       .  S
O73          C83   1.260       .  A
O73         Al75   1.892       .  S
O74          C87   1.268       .  A
O74         Al84   1.918       .  S
Al75         O88   1.928       .  S
Al75         O85   1.955       .  S
Al75         O80   1.773       .  S
O76          C83   1.271       .  A
O76         Al84   1.949       .  S
O77          C86   1.273       .  A
O77         Al84   1.978       .  S
O78         Al84   1.926       .  S
O79          C86   1.255       .  A
O80         Al84   1.773       .  S
O81          C82   1.262       .  A
C82        C1963   1.464       .  S
C83        C2139   1.479       .  S
C86        C1992   1.476       .  S
C87          O88   1.269       .  A
C87        C2075   1.478       .  S
O89         C104   1.266       .  A
O89         Al97   1.916       .  S
C90         O100   1.263       .  A
C90          O91   1.264       .  A
C90        C1931   1.472       .  S
O91         Al93   1.912       .  S
O92          C94   1.256       .  A
O92         Al93   1.898       .  S
Al93        O101   1.888       .  S
Al93        O103   1.935       .  S
Al93        O102   1.777       .  S
C94         O107   1.261       .  A
C94        C1896   1.466       .  S
O95         C105   1.267       .  A
O95         Al97   1.920   1_554  S
O96         C109   1.265       .  A
O96        Al106   1.928   1_556  S
Al97        O110   1.906       .  S
Al97        O107   1.919   1_556  S
Al97        O102   1.782   1_556  S
O98         C105   1.266       .  A
O98        Al106   1.917       .  S
O99         C108   1.262       .  A
O99        Al106   1.914       .  S
O100       Al106   1.915       .  S
O101        C108   1.259       .  A
O102       Al106   1.780       .  S
O103        C104   1.268   1_554  A
C104       C1880   1.479       .  S
C105       C1947   1.479       .  S
C108       C2184   1.467       .  S
C109        O110   1.261       .  A
C109       C1912   1.476       .  S
O111        C126   1.270       .  A
O111       Al119   1.931       .  S
C112        O122   1.264       .  A
C112        O113   1.263       .  A
C112       C1928   1.471       .  S
O113       Al115   1.918       .  S
O114        C116   1.264       .  A
O114       Al115   1.920       .  S
Al115       O123   1.953       .  S
Al115       O125   1.906       .  S
Al115       O124   1.773       .  S
C116        O129   1.258       .  A
C116       C1864   1.464       .  S
O117        C127   1.268       .  A
O117       Al119   1.947       .  S
O118        C131   1.265       .  A
O118       Al128   1.930       .  S
Al119       O132   1.888       .  S
Al119       O129   1.884       .  S
Al119       O124   1.777       .  S
O120        C127   1.257       .  A
O120       Al128   1.874       .  S
O121        C130   1.261       .  A
O121       Al128   1.889       .  S
O122       Al128   1.921       .  S
O123        C130   1.271       .  A
O124       Al128   1.764       .  S
O125        C126   1.266       .  A
C126       C1915   1.477       .  S
C127       C1835   1.465       .  S
C130       C2123   1.475       .  S
C131        O132   1.259       .  A
C131       C1848   1.469       .  S
O133        C148   1.267       .  A
O133       Al141   1.926       .  S
C134        O144   1.262       .  A
C134        O135   1.264       .  A
C134       C1819   1.479       .  S
O135       Al137   1.927       .  S
O136        C138   1.269       .  A
O136       Al137   1.931       .  S
Al137       O145   1.963   1_554  S
Al137       O147   1.928   1_554  S
Al137       O146   1.771       .  S
C138        O151   1.265       .  A
C138       C1944   1.478       .  S
O139        C149   1.268       .  A
O139       Al141   1.955   1_554  S
O140        C153   1.263       .  A
O140       Al150   1.917   1_556  S
Al141       O154   1.898       .  S
Al141       O151   1.905   1_556  S
Al141       O146   1.777   1_556  S
O142        C149   1.255       .  A
O142       Al150   1.872       .  S
O143        C152   1.256       .  A
O143       Al150   1.873   1_556  S
O144       Al150   1.916       .  S
O145        C152   1.272       .  A
O146       Al150   1.764       .  S
O147        C148   1.268       .  A
C148       C1800   1.485       .  S
C149       C1752   1.465       .  S
C152       C1787   1.475       .  S
C153        O154   1.260       .  A
C153       C1771   1.462       .  S
O155        C170   1.259       .  A
O155       Al163   1.882       .  S
C156        O166   1.265       .  A
C156        O157   1.266       .  A
C156       C1816   1.479       .  S
O157       Al159   1.921       .  S
O158        C160   1.258       .  A
O158       Al159   1.902       .  S
Al159       O167   1.907       .  S
Al159       O169   1.939       .  S
Al159       O168   1.778       .  S
C160        O173   1.264       .  A
C160       C1720   1.473       .  S
O161        C171   1.263       .  A
O161       Al163   1.903       .  S
O162        C175   1.266       .  A
O162       Al172   1.928       .  S
Al163       O176   1.928       .  S
Al163       O173   1.935       .  S
Al163       O168   1.783       .  S
O164        C171   1.264       .  A
O164       Al172   1.903       .  S
O165        C174   1.260       .  A
O165       Al172   1.903       .  S
O166       Al172   1.920       .  S
O167        C174   1.263       .  A
O168       Al172   1.776       .  S
O169        C170   1.269       .  A
C170       C1704   1.467       .  S
C171       C1867   1.465       .  S
C174       C1736   1.472       .  S
C175        O176   1.265       .  A
C175       C1803   1.484       .  S
O177        C192   1.261       .  A
O177       Al185   1.910       .  S
C178        O188   1.268       .  A
C178        O179   1.263       .  A
C178       C1640   1.478       .  S
O179       Al181   1.910       .  S
O180        C182   1.260       .  A
O180       Al181   1.898       .  S
Al181       O189   1.911   1_554  S
Al181       O191   1.900   1_554  S
Al181       O190   1.775       .  S
C182        O195   1.265       .  A
C182       C1688   1.468       .  S
O183        C193   1.264       .  A
O183       Al185   1.926   1_554  S
O184        C197   1.266       .  A
O184       Al194   1.916   1_556  S
Al185       O198   1.920       .  S
Al185       O195   1.928   1_556  S
Al185       O190   1.792   1_556  S
O186        C193   1.259       .  A
O186       Al194   1.894       .  S
O187        C196   1.259       .  A
O187       Al194   1.907   1_556  S
O188       Al194   1.932       .  S
O189        C196   1.262       .  A
O190       Al194   1.779       .  S
O191        C192   1.261       .  A
C192       C1675   1.472       .  S
C193       C1656   1.477       .  S
C196       C1608   1.472       .  S
C197        O198   1.267       .  A
C197       C1624   1.477       .  S
O199        C214   1.268       .  A
O199       Al207   1.925       .  S
C200        O210   1.265       .  A
C200        O201   1.264       .  A
C200       C1643   1.477       .  S
O201       Al203   1.916       .  S
O202        C204   1.267       .  A
O202       Al203   1.924       .  S
Al203       O211   1.942       .  S
Al203       O213   1.919       .  S
Al203       O212   1.769       .  S
C204        O217   1.265       .  A
C204       C1560   1.479       .  S
O205        C215   1.267       .  A
O205       Al207   1.946       .  S
O206        C219   1.264       .  A
O206       Al216   1.927       .  S
Al207       O220   1.890       .  S
Al207       O217   1.913       .  S
Al207       O212   1.777       .  S
O208        C215   1.256       .  A
O208       Al216   1.876       .  S
O209        C218   1.259       .  A
O209       Al216   1.892       .  S
O210       Al216   1.921       .  S
O211        C218   1.268       .  A
O212       Al216   1.771       .  S
O213        C214   1.267       .  A
C214       C1627   1.479       .  S
C215       C1576   1.467       .  S
C218       C1544   1.476       .  S
C219        O220   1.259       .  A
C219       C1592   1.460       .  S
O221        C236   1.263       .  A
O221       Al229   1.915       .  S
C222        O232   1.261       .  A
C222        O223   1.262       .  A
C222       C1496   1.474       .  S
O223       Al225   1.918   1_554  S
O224        C226   1.270   1_556  A
O224       Al225   1.934       .  S
Al225       O233   1.959       .  S
Al225       O235   1.926       .  S
Al225       O234   1.774   1_556  S
C226        O239   1.262       .  A
C226       C1659   1.476       .  S
O227        C237   1.265       .  A
O227       Al229   1.928   1_554  S
O228        C241   1.261   1_554  A
O228       Al238   1.917       .  S
Al229       O242   1.898       .  S
Al229       O239   1.897   1_556  S
Al229       O234   1.777   1_556  S
O230        C237   1.260       .  A
O230       Al238   1.889       .  S
O231        C240   1.257   1_554  A
O231       Al238   1.870       .  S
O232       Al238   1.912       .  S
O233        C240   1.271       .  A
O234       Al238   1.772       .  S
O235        C236   1.266       .  A
C236       C1480   1.481       .  S
C237       C1512   1.466       .  S
C240       C2040   1.476       .  S
C241        O242   1.262       .  A
C241       C1528   1.458       .  S
O243        C258   1.262       .  A
O243       Al251   1.902       .  S
C244        O254   1.267       .  A
C244        O245   1.262       .  A
C244       C1499   1.472       .  S
O245       Al247   1.905       .  S
O246        C248   1.259       .  A
O246       Al247   1.904       .  S
Al247       O255   1.910       .  S
Al247       O257   1.916       .  S
Al247       O256   1.783       .  S
C248        O261   1.264       .  A
C248       C1464   1.473       .  S
O249        C259   1.264       .  A
O249       Al251   1.923       .  S
O250        C263   1.265       .  A
O250       Al260   1.917       .  S
Al251       O264   1.926       .  S
Al251       O261   1.926       .  S
Al251       O256   1.790       .  S
O252        C259   1.262       .  A
O252       Al260   1.910       .  S
O253        C262   1.259       .  A
O253       Al260   1.908       .  S
O254       Al260   1.927       .  S
O255        C262   1.263       .  A
O256       Al260   1.783       .  S
O257        C258   1.264       .  A
C258       C1448   1.474       .  S
C259       C1563   1.482       .  S
C262       C1995   1.474       .  S
C263        O264   1.266       .  A
C263       C1483   1.481       .  S
O265        C280   1.263       .  A
O265       Al273   1.913       .  S
C266        O276   1.264       .  A
C266        O267   1.265       .  A
C266       C1371   1.470       .  S
O267       Al269   1.920   1_556  S
O268        C270   1.262   1_554  A
O268       Al269   1.903       .  S
Al269       O277   1.892       .  S
Al269       O279   1.926       .  S
Al269       O278   1.777       .  S
C270        O283   1.266       .  A
C270       C1403   1.471       .  S
O271        C281   1.261       .  A
O271       Al273   1.922   1_556  S
O272        C285   1.268       .  A
O272       Al282   1.938   1_554  S
Al273       O286   1.888       .  S
Al273       O283   1.918   1_554  S
Al273       O278   1.787       .  S
O274        C281   1.258       .  A
O274       Al282   1.903       .  S
O275        C284   1.264       .  A
O275       Al282   1.918   1_554  S
O276       Al282   1.909       .  S
O277        C284   1.258       .  A
O278       Al282   1.784   1_554  S
O279        C280   1.265       .  A
C280       C1384   1.479       .  S
C281       C1419   1.468       .  S
C284       C1784   1.474       .  S
C285        O286   1.260       .  A
C285       C1432   1.470       .  S
O287        C302   1.261       .  A
O287       Al295   1.898       .  S
C288        O298   1.263       .  A
C288        O289   1.263       .  A
C288       C1368   1.474       .  S
O289       Al291   1.914       .  S
O290        C292   1.256       .  A
O290       Al291   1.885       .  S
Al291       O299   1.875       .  S
Al291       O301   1.933       .  S
Al291       O300   1.772       .  S
C292        O305   1.267       .  A
C292       C1355   1.466       .  S
O293        C303   1.266       .  A
O293       Al295   1.912       .  S
O294        C307   1.267       .  A
O294       Al304   1.927       .  S
Al295       O308   1.909       .  S
Al295       O305   1.940       .  S
Al295       O300   1.773       .  S
O296        C303   1.267       .  A
O296       Al304   1.924       .  S
O297        C306   1.270       .  A
O297       Al304   1.953       .  S
O298       Al304   1.922       .  S
O299        C306   1.257       .  A
O300       Al304   1.775       .  S
O301        C302   1.263       .  A
C302       C1336   1.467       .  S
C303       C1320   1.478       .  S
C306       C1739   1.472       .  S
C307        O308   1.265       .  A
C307       C1387   1.479       .  S
O309        C324   1.267       .  A
O309       Al317   1.927       .  S
C310        O320   1.262       .  A
C310        O311   1.264       .  A
C310       C1275   1.477       .  S
O311       Al313   1.926   1_554  S
O312        C314   1.270   1_556  A
O312       Al313   1.943       .  S
Al313       O321   1.963       .  S
Al313       O323   1.917       .  S
Al313       O322   1.772   1_556  S
C314        O327   1.261       .  A
C314       C1400   1.474       .  S
O315        C325   1.268       .  A
O315       Al317   1.947   1_554  S
O316        C329   1.263   1_554  A
O316       Al326   1.927       .  S
Al317       O330   1.887       .  S
Al317       O327   1.891   1_556  S
Al317       O322   1.770   1_556  S
O318        C325   1.257       .  A
O318       Al326   1.886       .  S
O319        C328   1.257   1_554  A
O319       Al326   1.869       .  S
O320       Al326   1.913       .  S
O321        C328   1.273       .  A
O322       Al326   1.769       .  S
O323        C324   1.265       .  A
C324       C1256   1.479       .  S
C325       C1291   1.466       .  S
C328       C1611   1.474       .  S
C329        O330   1.260       .  A
C329       C1307   1.455       .  S
O331        C346   1.262       .  A
O331       Al339   1.907       .  S
C332        O342   1.266       .  A
C332        O333   1.264       .  A
C332       C1272   1.476       .  S
O333       Al335   1.916       .  S
O334        C336   1.264       .  A
O334       Al335   1.915       .  S
Al335       O343   1.912       .  S
Al335       O345   1.901       .  S
Al335       O344   1.780       .  S
C336        O349   1.264       .  A
C336       C1240   1.475       .  S
O337        C347   1.264       .  A
O337       Al339   1.916       .  S
O338        C351   1.266       .  A
O338       Al348   1.920       .  S
Al339       O352   1.918       .  S
Al339       O349   1.922       .  S
Al339       O344   1.787       .  S
O340        C347   1.262       .  A
O340       Al348   1.908       .  S
O341        C350   1.262       .  A
O341       Al348   1.917       .  S
O342       Al348   1.924       .  S
O343        C350   1.261       .  A
O344       Al348   1.784       .  S
O345        C346   1.260       .  A
C346       C1224   1.469       .  S
C347       C1323   1.479       .  S
C350       C1547   1.477       .  S
C351        O352   1.265       .  A
C351       C1259   1.478       .  S
O353        C368   1.262       .  A
O353       Al361   1.903       .  S
C354        O364   1.266       .  A
C354        O355   1.261       .  A
C354       C1179   1.468       .  S
O355       Al357   1.898       .  S
O356        C358   1.260       .  A
O356       Al357   1.903       .  S
Al357       O365   1.895       .  S
Al357       O367   1.899       .  S
Al357       O366   1.775       .  S
C358        O371   1.264       .  A
C358       C1467   1.471       .  S
O359        C369   1.266       .  A
O359       Al361   1.916       .  S
O360        C373   1.265       .  A
O360       Al370   1.922       .  S
Al361       O374   1.906       .  S
Al361       O371   1.928       .  S
Al361       O366   1.784       .  S
O362        C369   1.261       .  A
O362       Al370   1.899       .  S
O363        C372   1.261       .  A
O363       Al370   1.910       .  S
O364       Al370   1.927       .  S
O365        C372   1.259       .  A
O366       Al370   1.784       .  S
O367        C368   1.260       .  A
C368       C1515   1.464       .  S
C369       C1208   1.472       .  S
C372       C1163   1.466       .  S
C373        O374   1.264       .  A
C373       C1195   1.473       .  S
O375        C390   1.268       .  A
O375       Al383   1.922       .  S
C376        O386   1.264       .  A
C376        O377   1.262       .  A
C376       C1176   1.468       .  S
O377       Al379   1.907       .  S
O378        C380   1.266       .  A
O378       Al379   1.917       .  S
Al379       O387   1.942       .  S
Al379       O389   1.910       .  S
Al379       O388   1.773       .  S
C380        O393   1.268       .  A
C380       C1144   1.481       .  S
O381        C391   1.268       .  A
O381       Al383   1.956       .  S
O382        C395   1.263       .  A
O382       Al392   1.916       .  S
Al383       O396   1.902       .  S
Al383       O393   1.927       .  S
Al383       O388   1.780       .  S
O384        C391   1.256       .  A
O384       Al392   1.877       .  S
O385        C394   1.257       .  A
O385       Al392   1.879       .  S
O386       Al392   1.913       .  S
O387        C394   1.266       .  A
O388       Al392   1.768       .  S
O389        C390   1.264       .  A
C390       C1192   1.474       .  S
C391       C1451   1.477       .  S
C394       C1128   1.472       .  S
C395        O396   1.262       .  A
C395       C1531   1.462       .  S
O397        C412   1.262       .  A
O397       Al405   1.889       .  S
C398        O408   1.261       .  A
C398        O399   1.264       .  A
C398       C1115   1.463       .  S
O399       Al401   1.927       .  S
O400        C402   1.260       .  A
O400       Al401   1.901       .  S
Al401       O409   1.891       .  S
Al401       O411   1.924       .  S
Al401       O410   1.775       .  S
C402        O415   1.263       .  A
C402       C1899   1.466       .  S
O403        C413   1.261       .  A
O403       Al405   1.896       .  S
O404        C417   1.264       .  A
O404       Al414   1.912       .  S
Al405       O418   1.930       .  S
Al405       O415   1.926       .  S
Al405       O410   1.781       .  S
O406        C413   1.266       .  A
O406       Al414   1.923       .  S
O407        C416   1.264       .  A
O407       Al414   1.928       .  S
O408       Al414   1.900       .  S
O409        C416   1.259       .  A
O410       Al414   1.773       .  S
O411        C412   1.266       .  A
C412       C1832   1.466       .  S
C413       C1211   1.470       .  S
C416       C1083   1.472       .  S
C417        O418   1.265       .  A
C417       C1096   1.473       .  S
O419        C434   1.262       .  A
O419       Al427   1.911       .  S
C420        O430   1.263       .  A
C420        O421   1.263       .  A
C420       C1099   1.472       .  S
O421       Al423   1.928       .  S
O422        C424   1.257       .  A
O422       Al423   1.875       .  S
Al423       O431   1.869       .  S
Al423       O433   1.942       .  S
Al423       O432   1.767       .  S
C424        O437   1.269       .  A
C424       C1851   1.469       .  S
O425        C435   1.265       .  A
O425       Al427   1.909       .  S
O426        C439   1.264       .  A
O426       Al436   1.906       .  S
Al427       O440   1.922       .  S
Al427       O437   1.952       .  S
Al427       O432   1.777       .  S
O428        C435   1.269       .  A
O428       Al436   1.934       .  S
O429        C438   1.271       .  A
O429       Al436   1.958       .  S
O430       Al436   1.915       .  S
O431        C438   1.258       .  A
O432       Al436   1.773       .  S
O433        C434   1.266       .  A
C434       C1883   1.477       .  S
C435       C1147   1.482       .  S
C438       C1064   1.472       .  S
C439        O440   1.266       .  A
C439       C1112   1.469       .  S
O441        C456   1.260       .  A
O441       Al449   1.911       .  S
C442        O452   1.266       .  A
C442        O443   1.262       .  A
C442       C1032   1.475       .  S
O443       Al445   1.915       .  S
O444        C446   1.256       .  A
O444       Al445   1.875       .  S
Al445       O453   1.878       .  S
Al445       O455   1.921       .  S
Al445       O454   1.769       .  S
C446        O459   1.270       .  A
C446       C1435   1.464       .  S
O447        C457   1.266       .  A
O447       Al449   1.915       .  S
O448        C461   1.266       .  A
O448       Al458   1.920       .  S
Al449       O462   1.906       .  S
Al449       O459   1.951       .  S
Al449       O454   1.779       .  S
O450        C457   1.268       .  A
O450       Al458   1.937       .  S
O451        C460   1.271       .  A
O451       Al458   1.960       .  S
O452       Al458   1.928       .  S
O453        C460   1.258       .  A
O454       Al458   1.774       .  S
O455        C456   1.262       .  A
C456       C1339   1.472       .  S
C457       C1051   1.488       .  S
C460       C1000   1.474       .  S
C461        O462   1.265       .  A
C461       C1016   1.473       .  S
O463        C478   1.263       .  A
O463       Al471   1.915       .  S
C464        O474   1.265       .  A
C464        O465   1.264       .  A
C464       C1035   1.474       .  S
O465       Al467   1.913       .  S
O466        C468   1.263       .  A
O466       Al467   1.905       .  S
Al467       O475   1.899       .  S
Al467       O477   1.917       .  S
Al467       O476   1.775       .  S
C468        O481   1.265       .  A
C468        C984   1.470       .  S
O469        C479   1.262       .  A
O469       Al471   1.921       .  S
O470        C483   1.267       .  A
O470       Al480   1.929       .  S
Al471       O484   1.893       .  S
Al471       O481   1.912       .  S
Al471       O476   1.785       .  S
O472        C479   1.260       .  A
O472       Al480   1.905       .  S
O473        C482   1.262       .  A
O473       Al480   1.907       .  S
O474       Al480   1.922       .  S
O475        C482   1.259       .  A
O476       Al480   1.780       .  S
O477        C478   1.263       .  A
C478       C1019   1.473       .  S
C479       C1416   1.468       .  S
C482        C971   1.469       .  S
C483        O484   1.261       .  A
C483       C1352   1.469       .  S
O485        C500   1.259       .  A
O485       Al493   1.903       .  S
C486        O496   1.268       .  A
C486        O487   1.265       .  A
C486        C939   1.474       .  S
O487       Al489   1.918       .  S
O488        C490   1.257       .  A
O488       Al489   1.879       .  S
Al489       O497   1.889       .  S
Al489       O499   1.931       .  S
Al489       O498   1.774       .  S
C490        O503   1.269       .  A
C490       C2107   1.476       .  S
O491        C501   1.269       .  A
O491       Al493   1.935       .  S
O492        C505   1.268       .  A
O492       Al502   1.918       .  S
Al493       O506   1.915       .  S
Al493       O503   1.950       .  S
Al493       O498   1.779       .  S
O494        C501   1.265       .  A
O494       Al502   1.923       .  S
O495        C504   1.264       .  A
O495       Al502   1.937       .  S
O496       Al502   1.926       .  S
O497        C504   1.259       .  A
O498       Al502   1.778       .  S
O499        C500   1.263       .  A
C500       C2152   1.473       .  S
C501       C1048   1.493       .  S
C504       C1080   1.473       .  S
C505        O506   1.267       .  A
C505        C952   1.472       .  S
O507        C522   1.266       .  A
O507       Al515   1.921       .  S
C508        O518   1.268       .  A
C508        O509   1.264       .  A
C508        C936   1.475       .  S
O509       Al511   1.910       .  S
O510        C512   1.263       .  A
O510       Al511   1.906       .  S
Al511       O519   1.913       .  S
Al511       O521   1.913       .  S
Al511       O520   1.779       .  S
C512        O525   1.263       .  A
C512        C987   1.473       .  S
O513        C523   1.264       .  A
O513       Al515   1.932       .  S
O514        C527   1.266       .  A
O514       Al524   1.931       .  S
Al515       O528   1.888       .  S
Al515       O525   1.912       .  S
Al515       O520   1.782       .  S
O516        C523   1.261       .  A
O516       Al524   1.906       .  S
O517        C526   1.262       .  A
O517       Al524   1.904       .  S
O518       Al524   1.931       .  S
O519        C526   1.260       .  A
O520       Al524   1.777       .  S
O521        C522   1.264       .  A
C522        C955   1.474       .  S
C523       C2091   1.474       .  S
C526       C1067   1.472       .  S
C527        O528   1.260       .  A
C527       C2168   1.471       .  S
O529        C544   1.261       .  A
O529       Al537   1.890       .  S
C530        O540   1.262       .  A
C530        O531   1.266       .  A
C530        C907   1.472       .  S
O531       Al533   1.922       .  S
O532        C534   1.261       .  A
O532       Al533   1.912       .  S
Al533       O541   1.901       .  S
Al533       O543   1.925       .  S
Al533       O542   1.778       .  S
C534        O547   1.261       .  A
C534       C1691   1.470       .  S
O535        C545   1.262       .  A
O535       Al537   1.903       .  S
O536        C549   1.264       .  A
O536       Al546   1.919       .  S
Al537       O550   1.914       .  S
Al537       O547   1.918       .  S
Al537       O542   1.780       .  S
O538        C545   1.270       .  A
O538       Al546   1.940       .  S
O539        C548   1.267       .  A
O539       Al546   1.946       .  S
O540       Al546   1.905       .  S
O541        C548   1.261       .  A
O542       Al546   1.779       .  S
O543        C544   1.266       .  A
C544       C1579   1.468       .  S
C545        C923   1.480       .  S
C548        C872   1.487       .  S
C549        O550   1.265       .  A
C549        C888   1.474       .  S
O551        C566   1.266       .  A
O551       Al559   1.918       .  S
C552        O562   1.261       .  A
C552        O553   1.266       .  A
C552        C904   1.472       .  S
O553       Al555   1.931       .  S
O554        C556   1.261       .  A
O554       Al555   1.888       .  S
Al555       O563   1.909       .  S
Al555       O565   1.914       .  S
Al555       O564   1.775       .  S
C556        O569   1.267       .  A
C556        C856   1.468       .  S
O557        C567   1.268       .  A
O557       Al559   1.957       .  S
O558        C571   1.261       .  A
O558       Al568   1.911       .  S
Al559       O572   1.904       .  S
Al559       O569   1.921       .  S
Al559       O564   1.783       .  S
O560        C567   1.257       .  A
O560       Al568   1.873       .  S
O561        C570   1.259       .  A
O561       Al568   1.883       .  S
O562       Al568   1.901       .  S
O563        C570   1.261       .  A
O564       Al568   1.765       .  S
O565        C566   1.265       .  A
C566        C891   1.473       .  S
C567       C1672   1.475       .  S
C570        C843   1.458       .  S
C571        O572   1.260       .  A
C571       C1595   1.462       .  S
O573        C588   1.259       .  A
O573       Al581   1.895       .  S
C574        O584   1.268       .  A
C574        O575   1.263       .  A
C574        C808   1.473       .  S
O575       Al577   1.900       .  S
O576        C578   1.258       .  A
O576       Al577   1.897       .  S
Al577       O585   1.913       .  S
Al577       O587   1.918       .  S
Al577       O586   1.780       .  S
C578        O591   1.265       .  A
C578       C1723   1.471       .  S
O579        C589   1.267       .  A
O579       Al581   1.931       .  S
O580        C593   1.266       .  A
O580       Al590   1.921       .  S
Al581       O594   1.914       .  S
Al581       O591   1.937       .  S
Al581       O586   1.791       .  S
O582        C589   1.260       .  A
O582       Al590   1.893       .  S
O583        C592   1.258       .  A
O583       Al590   1.900       .  S
O584       Al590   1.930       .  S
O585        C592   1.262       .  A
O586       Al590   1.778       .  S
O587        C588   1.264       .  A
C588       C1755   1.469       .  S
C589        C920   1.478       .  S
C592       C1003   1.472       .  S
C593        O594   1.264       .  A
C593        C827   1.475       .  S
O595        C610   1.266       .  A
O595       Al603   1.919       .  S
C596        O606   1.264       .  A
C596        O597   1.263       .  A
C596        C811   1.474       .  S
O597       Al599   1.917       .  S
O598        C600   1.270       .  A
O598       Al599   1.934       .  S
Al599       O607   1.960       .  S
Al599       O609   1.920       .  S
Al599       O608   1.771       .  S
C600        O613   1.263       .  A
C600        C859   1.471       .  S
O601        C611   1.268       .  A
O601       Al603   1.950       .  S
O602        C615   1.264       .  A
O602       Al612   1.927       .  S
Al603       O616   1.887       .  S
Al603       O613   1.896       .  S
Al603       O608   1.770       .  S
O604        C611   1.255       .  A
O604       Al612   1.878       .  S
O605        C614   1.255       .  A
O605       Al612   1.866       .  S
O606       Al612   1.915       .  S
O607        C614   1.271       .  A
O608       Al612   1.763       .  S
O609        C610   1.266       .  A
C610        C824   1.475       .  S
C611       C1707   1.466       .  S
C614        C968   1.469       .  S
C615        O616   1.258       .  A
C615       C1768   1.456       .  S
O617        C632   1.261       .  A
O617       Al625   1.889       .  S
C618        O628   1.261       .  A
C618        O619   1.267       .  A
C618        C760   1.469       .  S
O619       Al621   1.925       .  S
O620        C622   1.260       .  A
O620       Al621   1.913       .  S
Al621       O629   1.901       .  S
Al621       O631   1.935       .  S
Al621       O630   1.779       .  S
C622        O635   1.262       .  A
C622       C1243   1.476       .  S
O623        C633   1.267       .  A
O623       Al625   1.914       .  S
O624        C637   1.266       .  A
O624       Al634   1.925       .  S
Al625       O638   1.910       .  S
Al625       O635   1.928       .  S
Al625       O630   1.783       .  S
O626        C633   1.267       .  A
O626       Al634   1.919       .  S
O627        C636   1.264       .  A
O627       Al634   1.937       .  S
O628       Al634   1.903       .  S
O629        C636   1.260       .  A
O630       Al634   1.781       .  S
O631        C632   1.269       .  A
C632       C1288   1.469       .  S
C633        C795   1.476       .  S
C636        C875   1.485       .  S
C637        O638   1.263       .  A
C637        C779   1.473       .  S
O639        C654   1.267       .  A
O639       Al647   1.928       .  S
C640        O650   1.262       .  A
C640        O641   1.265       .  A
C640        C763   1.470       .  S
O641       Al643   1.924       .  S
O642        C644   1.267       .  A
O642       Al643   1.921       .  S
Al643       O651   1.940       .  S
Al643       O653   1.909       .  S
Al643       O652   1.772       .  S
C644        O657   1.260       .  A
C644        C744   1.467       .  S
O645        C655   1.269       .  A
O645       Al647   1.948       .  S
O646        C659   1.261       .  A
O646       Al656   1.913       .  S
Al647       O660   1.893       .  S
Al647       O657   1.890       .  S
Al647       O652   1.773       .  S
O648        C655   1.259       .  A
O648       Al656   1.878       .  S
O649        C658   1.256       .  A
O649       Al656   1.867       .  S
O650       Al656   1.910       .  S
O651        C658   1.268       .  A
O652       Al656   1.762       .  S
O653        C654   1.263       .  A
C654        C776   1.473       .  S
C655       C1227   1.469       .  S
C658        C840   1.459       .  S
C659        O660   1.259       .  A
C659       C1304   1.457       .  S
O661        C676   1.259       .  A
O661       Al669   1.898       .  S
C662        O672   1.266       .  A
C662        O663   1.260       .  A
C662        C731   1.472       .  S
O663       Al665   1.905       .  S
O664        C666   1.257       .  A
O664       Al665   1.878       .  S
Al665       O673   1.884       .  S
Al665       O675   1.919       .  S
Al665       O674   1.770       .  S
C666        O679   1.266       .  A
C666       C2027   1.462       .  S
O667        C677   1.264       .  A
O667       Al669   1.905       .  S
O668        C681   1.268       .  A
O668       Al678   1.930       .  S
Al669       O682   1.908       .  S
Al669       O679   1.939       .  S
Al669       O674   1.775       .  S
O670        C677   1.265       .  A
O670       Al678   1.917       .  S
O671        C680   1.267       .  A
O671       Al678   1.932       .  S
O672       Al678   1.931       .  S
O673        C680   1.260       .  A
O674       Al678   1.773       .  S
O675        C676   1.261       .  A
C676       C1960   1.457       .  S
C677        C792   1.473       .  S
C680       C1160   1.466       .  S
C681        O682   1.264       .  A
C681        C715   1.475       .  S
O683        C698   1.268       .  A
O683       Al691   1.930       .  S
C684        O694   1.265       .  A
C684        O685   1.262       .  A
C684        C728   1.470       .  S
O685       Al687   1.908       .  S
O686        C688   1.261       .  A
O686       Al687   1.897       .  S
Al687       O695   1.914       .  S
Al687       O697   1.907       .  S
Al687       O696   1.777       .  S
C688        O701   1.263       .  A
C688        C747   1.468       .  S
O689        C699   1.265       .  A
O689       Al691   1.930       .  S
O690        C703   1.264       .  A
O690       Al700   1.913       .  S
Al691       O704   1.897       .  S
Al691       O701   1.912       .  S
Al691       O696   1.787       .  S
O692        C699   1.261       .  A
O692       Al700   1.906       .  S
O693        C702   1.260       .  A
O693       Al700   1.902       .  S
O694       Al700   1.923       .  S
O695        C702   1.261       .  A
O696       Al700   1.776       .  S
O697        C698   1.263       .  A
C698        C712   1.476       .  S
C699       C2008   1.472       .  S
C702       C1131   1.471       .  S
C703        O704   1.262       .  A
C703       C1976   1.467       .  S
C705        S711   1.715       .  A
C705        C710   1.386       .  A
C705        C706   1.410       .  A
C706        C707   1.410       .  A
C706        H717   1.083       .  S
C707        C716   1.382       .  A
C707        C708   1.387       .  A
C708        S714   1.697       .  A
C708        C709   1.397       .  A
C709        C710   1.397       .  A
C709        H718   1.083       .  S
C710        C713   1.368       .  A
S711        C712   1.728       .  A
C712        C713   1.384       .  A
C713        H719   1.083       .  S
S714        C715   1.721       .  A
C715        C716   1.391       .  A
C716        H720   1.083       .  S
C721        S727   1.715       .  A
C721        C726   1.387       .  A
C721        C722   1.407   1_556  A
C722        C723   1.408       .  A
C722        H733   1.083       .  S
C723        C732   1.379       .  A
C723        C724   1.387       .  A
C724        S730   1.699       .  A
C724        C725   1.398   1_554  A
C725        C726   1.398       .  A
C725        H734   1.083       .  S
C726        C729   1.367       .  A
S727        C728   1.724       .  A
C728        C729   1.383       .  A
C729        H735   1.083       .  S
S730        C731   1.723       .  A
C731        C732   1.389       .  A
C732        H736   1.083       .  S
C737        S743   1.710       .  A
C737        C742   1.387       .  A
C737        C738   1.406   1_565  A
C738        C739   1.406       .  A
C738        H749   1.083       .  S
C739        C748   1.376       .  A
C739        C740   1.388       .  A
C740        S746   1.694       .  A
C740        C741   1.394       .  A
C741        C742   1.394   1_545  A
C741        H750   1.083       .  S
C742        C745   1.363       .  A
S743        C744   1.726       .  A
C744        C745   1.381       .  A
C745        H751   1.084       .  S
S746        C747   1.720       .  A
C747        C748   1.388       .  A
C748        H752   1.083       .  S
C753        S759   1.714       .  A
C753        C758   1.387       .  A
C753        C754   1.408       .  A
C754        C755   1.408       .  A
C754        H765   1.083       .  S
C755        C764   1.378       .  A
C755        C756   1.388       .  A
C756        S762   1.698       .  A
C756        C757   1.397       .  A
C757        C758   1.397       .  A
C757        H766   1.083       .  S
C758        C761   1.367       .  A
S759        C760   1.725       .  A
C760        C761   1.382       .  A
C761        H767   1.083       .  S
S762        C763   1.721       .  A
C763        C764   1.389       .  A
C764        H768   1.083       .  S
C769        S775   1.714       .  A
C769        C774   1.386       .  A
C769        C770   1.408   1_556  A
C770        C771   1.408       .  A
C770        H781   1.083       .  S
C771        C780   1.379       .  A
C771        C772   1.388       .  A
C772        S778   1.698       .  A
C772        C773   1.397   1_554  A
C773        C774   1.397       .  A
C773        H782   1.083       .  S
C774        C777   1.367       .  A
S775        C776   1.726       .  A
C776        C777   1.384       .  A
C777        H783   1.083       .  S
S778        C779   1.722       .  A
C779        C780   1.389       .  A
C780        H784   1.083       .  S
C785        S791   1.703       .  A
C785        C790   1.387       .  A
C785        C786   1.397       .  A
C786        C787   1.399   1_545  A
C786        H797   1.083       .  S
C787        C796   1.365       .  A
C787        C788   1.386       .  A
C788        S794   1.716       .  A
C788        C789   1.407   1_565  A
C789        C790   1.408       .  A
C789        H798   1.083       .  S
C790        C793   1.376       .  A
S791        C792   1.722       .  A
C792        C793   1.390       .  A
C793        H799   1.083       .  S
S794        C795   1.726       .  A
C795        C796   1.386       .  A
C796        H800   1.083       .  S
C801        S807   1.695       .  A
C801        C806   1.388       .  A
C801        C802   1.395       .  A
C802        C803   1.395       .  A
C802        H813   1.083       .  S
C803        C812   1.365       .  A
C803        C804   1.386       .  A
C804        S810   1.717       .  A
C804        C805   1.410       .  A
C805        C806   1.410       .  A
C805        H814   1.083       .  S
C806        C809   1.382       .  A
S807        C808   1.721       .  A
C808        C809   1.391       .  A
C809        H815   1.083       .  S
S810        C811   1.727       .  A
C811        C812   1.384       .  A
C812        H816   1.084       .  S
C817        S823   1.717       .  A
C817        C822   1.386       .  A
C817        C818   1.409   1_556  A
C818        C819   1.409       .  A
C818        H829   1.083       .  S
C819        C828   1.379       .  A
C819        C820   1.387       .  A
C820        S826   1.700       .  A
C820        C821   1.397   1_554  A
C821        C822   1.398       .  A
C821        H830   1.083       .  S
C822        C825   1.365       .  A
S823        C824   1.726       .  A
C824        C825   1.385       .  A
C825        H831   1.083       .  S
S826        C827   1.722       .  A
C827        C828   1.391       .  A
C828        H832   1.083       .  S
C833        S839   1.694       .  A
C833        C838   1.388       .  A
C833        C834   1.394       .  A
C834        C835   1.394       .  A
C834        H845   1.083       .  S
C835        C844   1.361       .  A
C835        C836   1.387       .  A
C836        S842   1.704       .  A
C836        C837   1.400       .  A
C837        C838   1.401       .  A
C837        H846   1.083       .  S
C838        C841   1.368       .  A
S839        C840   1.720       .  A
C840        C841   1.384       .  A
C841        H847   1.083       .  S
S842        C843   1.723       .  A
C843        C844   1.380       .  A
C844        H848   1.084       .  S
C849        S855   1.695       .  A
C849        C854   1.388       .  A
C849        C850   1.396   1_655  A
C850        C851   1.396       .  A
C850        H861   1.083       .  S
C851        C860   1.366       .  A
C851        C852   1.386       .  A
C852        S858   1.712       .  A
C852        C853   1.407   1_455  A
C853        C854   1.407       .  A
C853        H862   1.083       .  S
C854        C857   1.378       .  A
S855        C856   1.722       .  A
C856        C857   1.388       .  A
C857        H863   1.083       .  S
S858        C859   1.727       .  A
C859        C860   1.383       .  A
C860        H864   1.083       .  S
C865        S871   1.716       .  A
C865        C870   1.386       .  A
C865        C866   1.409       .  A
C866        C867   1.409       .  A
C866        H877   1.083       .  S
C867        C876   1.380       .  A
C867        C868   1.386       .  A
C868        S874   1.710       .  A
C868        C869   1.404       .  A
C869        C870   1.405       .  A
C869        H878   1.083       .  S
C870        C873   1.376       .  A
S871        C872   1.728       .  A
C872        C873   1.391       .  A
C873        H879   1.083       .  S
S874        C875   1.725       .  A
C875        C876   1.393       .  A
C876        H880   1.083       .  S
C881        S887   1.718       .  A
C881        C886   1.386       .  A
C881        C882   1.409       .  A
C882        C883   1.410       .  A
C882        H893   1.083       .  S
C883        C892   1.378       .  A
C883        C884   1.387       .  A
C884        S890   1.699       .  A
C884        C885   1.395       .  A
C885        C886   1.397       .  A
C885        H894   1.083       .  S
C886        C889   1.364       .  A
S887        C888   1.726       .  A
C888        C889   1.384       .  A
C889        H895   1.084       .  S
S890        C891   1.720       .  A
C891        C892   1.391       .  A
C892        H896   1.083       .  S
C897        S903   1.695       .  A
C897        C902   1.388       .  A
C897        C898   1.397       .  A
C898        C899   1.396   1_556  A
C898        H909   1.083   1_556  S
C899        C908   1.367       .  A
C899        C900   1.386       .  A
C900        S906   1.714       .  A
C900        C901   1.409   1_554  A
C901        C902   1.408       .  A
C901        H910   1.083       .  S
C902        C905   1.381       .  A
S903        C904   1.722       .  A
C904        C905   1.390       .  A
C905        H911   1.083       .  S
S906        C907   1.726       .  A
C907        C908   1.383       .  A
C908        H912   1.084       .  S
C913        S919   1.696       .  A
C913        C918   1.387       .  A
C913        C914   1.398   1_455  A
C914        C915   1.397       .  A
C914        H925   1.083       .  S
C915        C924   1.370       .  A
C915        C916   1.386       .  A
C916        S922   1.716       .  A
C916        C917   1.412       .  A
C917        C918   1.411   1_655  A
C917        H926   1.083       .  S
C918        C921   1.384       .  A
S919        C920   1.723       .  A
C920        C921   1.393       .  A
C921        H927   1.083       .  S
S922        C923   1.730       .  A
C923        C924   1.385       .  A
C924        H928   1.083       .  S
C929        S935   1.714       .  A
C929        C934   1.386       .  A
C929        C930   1.407       .  A
C930        C931   1.408       .  A
C930        H941   1.083       .  S
C931        C940   1.379       .  A
C931        C932   1.387       .  A
C932        S938   1.702       .  A
C932        C933   1.400       .  A
C933        C934   1.400       .  A
C933        H942   1.083       .  S
C934        C937   1.370       .  A
S935        C936   1.725       .  A
C936        C937   1.385       .  A
C937        H943   1.083       .  S
S938        C939   1.723       .  A
C939        C940   1.389       .  A
C940        H944   1.083       .  S
C945        S951   1.698       .  A
C945        C950   1.387       .  A
C945        C946   1.396       .  A
C946        C947   1.397   1_554  A
C946        H957   1.083   1_554  S
C947        C956   1.365       .  A
C947        C948   1.386       .  A
C948        S954   1.716       .  A
C948        C949   1.408   1_556  A
C949        C950   1.409       .  A
C949        H958   1.083       .  S
C950        C953   1.378       .  A
S951        C952   1.721       .  A
C952        C953   1.390       .  A
C953        H959   1.083       .  S
S954        C955   1.727       .  A
C955        C956   1.384       .  A
C956        H960   1.084       .  S
C961        S967   1.699       .  A
C961        C966   1.387       .  A
C961        C962   1.401       .  A
C962        C963   1.400       .  A
C962        H973   1.083       .  S
C963        C972   1.372       .  A
C963        C964   1.387       .  A
C964        S970   1.703       .  A
C964        C965   1.403       .  A
C965        C966   1.402       .  A
C965        H974   1.083       .  S
C966        C969   1.374       .  A
S967        C968   1.725       .  A
C968        C969   1.385       .  A
C969        H975   1.083       .  S
S970        C971   1.724       .  A
C971        C972   1.385       .  A
C972        H976   1.083       .  S
C977        S983   1.698       .  A
C977        C982   1.387       .  A
C977        C978   1.395   1_565  A
C978        C979   1.397       .  A
C978        H989   1.083       .  S
C979        C988   1.363       .  A
C979        C980   1.386       .  A
C980        S986   1.716       .  A
C980        C981   1.407       .  A
C981        C982   1.408   1_545  A
C981        H990   1.083       .  S
C982        C985   1.377       .  A
S983        C984   1.721       .  A
C984        C985   1.389       .  A
C985        H991   1.083       .  S
S986        C987   1.725       .  A
C987        C988   1.385       .  A
C988        H992   1.084       .  S
C993        S999   1.703       .  A
C993        C998   1.387       .  A
C993        C994   1.403       .  A
C994        C995   1.401       .  A
C994       H1005   1.083       .  S
C995       C1004   1.374       .  A
C995        C996   1.387       .  A
C996       S1002   1.704       .  A
C996        C997   1.403       .  A
C997        C998   1.403       .  A
C997       H1006   1.083       .  S
C998       C1001   1.375       .  A
S999       C1000   1.726       .  A
C1000      C1001   1.387       .  A
C1001      H1007   1.083       .  S
S1002      C1003   1.726       .  A
C1003      C1004   1.386       .  A
C1004      H1008   1.083       .  S
C1009      S1015   1.718       .  A
C1009      C1014   1.386       .  A
C1009      C1010   1.409       .  A
C1010      C1011   1.410       .  A
C1010      H1021   1.083       .  S
C1011      C1020   1.378       .  A
C1011      C1012   1.387       .  A
C1012      S1018   1.699       .  A
C1012      C1013   1.395       .  A
C1013      C1014   1.396       .  A
C1013      H1022   1.083       .  S
C1014      C1017   1.362       .  A
S1015      C1016   1.726       .  A
C1016      C1017   1.384       .  A
C1017      H1023   1.084       .  S
S1018      C1019   1.720       .  A
C1019      C1020   1.391       .  A
C1020      H1024   1.083       .  S
C1025      S1031   1.703       .  A
C1025      C1030   1.387       .  A
C1025      C1026   1.400   1_554  A
C1026      C1027   1.400       .  A
C1026      H1037   1.083       .  S
C1027      C1036   1.369       .  A
C1027      C1028   1.386       .  A
C1028      S1034   1.715       .  A
C1028      C1029   1.407   1_556  A
C1029      C1030   1.408       .  A
C1029      H1038   1.083       .  S
C1030      C1033   1.378       .  A
S1031      C1032   1.724       .  A
C1032      C1033   1.389       .  A
C1033      H1039   1.083       .  S
S1034      C1035   1.724       .  A
C1035      C1036   1.386       .  A
C1036      H1040   1.083       .  S
C1041      S1047   1.724       .  A
C1041      C1046   1.385       .  A
C1041      C1042   1.412   1_545  A
C1042      C1043   1.413       .  A
C1042      H1053   1.083       .  S
C1043      C1052   1.384       .  A
C1043      C1044   1.386       .  A
C1044      S1050   1.711       .  A
C1044      C1045   1.404   1_565  A
C1045      C1046   1.405       .  A
C1045      H1054   1.083       .  S
C1046      C1049   1.374       .  A
S1047      C1048   1.730       .  A
C1048      C1049   1.392       .  A
C1049      H1055   1.083       .  S
S1050      C1051   1.725       .  A
C1051      C1052   1.395       .  A
C1052      H1056   1.083       .  S
C1057      S1063   1.697       .  A
C1057      C1062   1.387       .  A
C1057      C1058   1.398       .  A
C1058      C1059   1.397       .  A
C1058      H1069   1.083       .  S
C1059      C1068   1.369       .  A
C1059      C1060   1.387       .  A
C1060      S1066   1.708       .  A
C1060      C1061   1.406       .  A
C1061      C1062   1.405       .  A
C1061      H1070   1.083       .  S
C1062      C1065   1.378       .  A
S1063      C1064   1.722       .  A
C1064      C1065   1.389       .  A
C1065      H1071   1.083       .  S
S1066      C1067   1.727       .  A
C1067      C1068   1.383       .  A
C1068      H1072   1.083       .  S
C1073      S1079   1.711       .  A
C1073      C1078   1.386       .  A
C1073      C1074   1.404       .  A
C1074      C1075   1.405       .  A
C1074      H1085   1.083       .  S
C1075      C1084   1.372       .  A
C1075      C1076   1.387       .  A
C1076      S1082   1.705       .  A
C1076      C1077   1.399       .  A
C1077      C1078   1.401       .  A
C1077      H1086   1.083       .  S
C1078      C1081   1.368       .  A
S1079      C1080   1.725       .  A
C1080      C1081   1.386       .  A
C1081      H1087   1.083       .  S
S1082      C1083   1.722       .  A
C1083      C1084   1.388       .  A
C1084      H1088   1.083       .  S
C1089      S1095   1.709       .  A
C1089      C1094   1.387       .  A
C1089      C1090   1.404       .  A
C1090      C1091   1.404       .  A
C1090      H1101   1.083       .  S
C1091      C1100   1.375       .  A
C1091      C1092   1.387       .  A
C1092      S1098   1.709       .  A
C1092      C1093   1.404       .  A
C1093      C1094   1.404       .  A
C1093      H1102   1.083       .  S
C1094      C1097   1.375       .  A
S1095      C1096   1.723       .  A
C1096      C1097   1.387       .  A
C1097      H1103   1.083       .  S
S1098      C1099   1.723       .  A
C1099      C1100   1.387       .  A
C1100      H1104   1.083       .  S
C1105      S1111   1.704       .  A
C1105      C1110   1.387       .  A
C1105      C1106   1.400   1_556  A
C1106      C1107   1.400       .  A
C1106      H1117   1.083       .  S
C1107      C1116   1.369       .  A
C1107      C1108   1.388       .  A
C1108      S1114   1.710       .  A
C1108      C1109   1.404   1_554  A
C1109      C1110   1.404       .  A
C1109      H1118   1.083       .  S
C1110      C1113   1.373       .  A
S1111      C1112   1.722       .  A
C1112      C1113   1.387       .  A
C1113      H1119   1.083       .  S
S1114      C1115   1.721       .  A
C1115      C1116   1.382       .  A
C1116      H1120   1.083       .  S
C1121      S1127   1.711       .  A
C1121      C1126   1.386       .  A
C1121      C1122   1.402       .  A
C1122      C1123   1.404       .  A
C1122      H1133   1.083       .  S
C1123      C1132   1.369       .  A
C1123      C1124   1.387       .  A
C1124      S1130   1.709       .  A
C1124      C1125   1.400       .  A
C1125      C1126   1.403       .  A
C1125      H1134   1.083       .  S
C1126      C1129   1.367       .  A
S1127      C1128   1.723       .  A
C1128      C1129   1.388       .  A
C1129      H1135   1.083       .  S
S1130      C1131   1.722       .  A
C1131      C1132   1.388       .  A
C1132      H1136   1.083       .  S
C1137      S1143   1.702       .  A
C1137      C1142   1.387       .  A
C1137      C1138   1.401       .  A
C1138      C1139   1.401   1_655  A
C1138      H1149   1.083   1_655  S
C1139      C1148   1.373       .  A
C1139      C1140   1.386       .  A
C1140      S1146   1.716       .  A
C1140      C1141   1.411   1_455  A
C1141      C1142   1.410       .  A
C1141      H1150   1.083       .  S
C1142      C1145   1.383       .  A
S1143      C1144   1.724       .  A
C1144      C1145   1.392       .  A
C1145      H1151   1.083       .  S
S1146      C1147   1.728       .  A
C1147      C1148   1.387       .  A
C1148      H1152   1.083       .  S
C1153      S1159   1.706       .  A
C1153      C1158   1.387       .  A
C1153      C1154   1.399       .  A
C1154      C1155   1.401       .  A
C1154      H1165   1.083       .  S
C1155      C1164   1.366       .  A
C1155      C1156   1.387       .  A
C1156      S1162   1.706       .  A
C1156      C1157   1.399       .  A
C1157      C1158   1.401       .  A
C1157      H1166   1.083       .  S
C1158      C1161   1.366       .  A
S1159      C1160   1.722       .  A
C1160      C1161   1.386       .  A
C1161      H1167   1.083       .  S
S1162      C1163   1.721       .  A
C1163      C1164   1.386       .  A
C1164      H1168   1.083       .  S
C1169      S1175   1.714       .  A
C1169      C1174   1.386       .  A
C1169      C1170   1.408       .  A
C1170      C1171   1.408       .  A
C1170      H1181   1.083       .  S
C1171      C1180   1.379       .  A
C1171      C1172   1.388       .  A
C1172      S1178   1.695       .  A
C1172      C1173   1.395       .  A
C1173      C1174   1.395       .  A
C1173      H1182   1.084       .  S
C1174      C1177   1.364       .  A
S1175      C1176   1.725       .  A
C1176      C1177   1.382       .  A
C1177      H1183   1.084       .  S
S1178      C1179   1.720       .  A
C1179      C1180   1.389       .  A
C1180      H1184   1.083       .  S
C1185      S1191   1.717       .  A
C1185      C1190   1.386       .  A
C1185      C1186   1.410   1_556  A
C1186      C1187   1.410       .  A
C1186      H1197   1.083       .  S
C1187      C1196   1.381       .  A
C1187      C1188   1.387       .  A
C1188      S1194   1.694       .  A
C1188      C1189   1.394   1_554  A
C1189      C1190   1.394       .  A
C1189      H1198   1.083       .  S
C1190      C1193   1.364       .  A
S1191      C1192   1.728       .  A
C1192      C1193   1.383       .  A
C1193      H1199   1.083       .  S
S1194      C1195   1.720       .  A
C1195      C1196   1.392       .  A
C1196      H1200   1.083       .  S
C1201      S1207   1.699       .  A
C1201      C1206   1.387       .  A
C1201      C1202   1.398   1_655  A
C1202      C1203   1.398       .  A
C1202      H1213   1.083       .  S
C1203      C1212   1.367       .  A
C1203      C1204   1.387       .  A
C1204      S1210   1.710       .  A
C1204      C1205   1.405       .  A
C1205      C1206   1.405   1_455  A
C1205      H1214   1.083   1_455  S
C1206      C1209   1.376       .  A
S1207      C1208   1.724       .  A
C1208      C1209   1.388       .  A
C1209      H1215   1.083       .  S
S1210      C1211   1.725       .  A
C1211      C1212   1.384       .  A
C1212      H1216   1.083       .  S
C1217      S1223   1.699       .  A
C1217      C1222   1.387       .  A
C1217      C1218   1.396       .  A
C1218      C1219   1.398       .  A
C1218      H1229   1.084       .  S
C1219      C1228   1.365       .  A
C1219      C1220   1.386       .  A
C1220      S1226   1.710       .  A
C1220      C1221   1.405       .  A
C1221      C1222   1.405       .  A
C1221      H1230   1.083       .  S
C1222      C1225   1.374       .  A
S1223      C1224   1.722       .  A
C1224      C1225   1.388       .  A
C1225      H1231   1.083       .  S
S1226      C1227   1.724       .  A
C1227      C1228   1.386       .  A
C1228      H1232   1.084       .  S
C1233      S1239   1.704       .  A
C1233      C1238   1.387       .  A
C1233      C1234   1.406       .  A
C1234      C1235   1.404       .  A
C1234      H1245   1.083       .  S
C1235      C1244   1.380       .  A
C1235      C1236   1.387       .  A
C1236      S1242   1.705       .  A
C1236      C1237   1.406       .  A
C1237      C1238   1.405       .  A
C1237      H1246   1.083       .  S
C1238      C1241   1.380       .  A
S1239      C1240   1.725       .  A
C1240      C1241   1.388       .  A
C1241      H1247   1.083       .  S
S1242      C1243   1.725       .  A
C1243      C1244   1.388       .  A
C1244      H1248   1.083       .  S
C1249      S1255   1.717       .  A
C1249      C1254   1.386       .  A
C1249      C1250   1.409       .  A
C1250      C1251   1.410       .  A
C1250      H1261   1.083       .  S
C1251      C1260   1.380       .  A
C1251      C1252   1.387       .  A
C1252      S1258   1.702       .  A
C1252      C1253   1.399       .  A
C1253      C1254   1.400       .  A
C1253      H1262   1.083       .  S
C1254      C1257   1.369       .  A
S1255      C1256   1.727       .  A
C1256      C1257   1.386       .  A
C1257      H1263   1.083       .  S
S1258      C1259   1.723       .  A
C1259      C1260   1.392       .  A
C1260      H1264   1.083       .  S
C1265      S1271   1.702       .  A
C1265      C1270   1.387       .  A
C1265      C1266   1.398       .  A
C1266      C1267   1.399       .  A
C1266      H1277   1.083       .  S
C1267      C1276   1.368       .  A
C1267      C1268   1.386       .  A
C1268      S1274   1.718       .  A
C1268      C1269   1.410       .  A
C1269      C1270   1.410       .  A
C1269      H1278   1.083       .  S
C1270      C1273   1.381       .  A
S1271      C1272   1.721       .  A
C1272      C1273   1.391       .  A
C1273      H1279   1.083       .  S
S1274      C1275   1.727       .  A
C1275      C1276   1.386       .  A
C1276      H1280   1.084       .  S
C1281      S1287   1.706       .  A
C1281      C1286   1.387       .  A
C1281      C1282   1.401       .  A
C1282      C1283   1.402       .  A
C1282      H1293   1.083       .  S
C1283      C1292   1.369       .  A
C1283      C1284   1.387       .  A
C1284      S1290   1.705       .  A
C1284      C1285   1.401       .  A
C1285      C1286   1.402       .  A
C1285      H1294   1.083       .  S
C1286      C1289   1.370       .  A
S1287      C1288   1.723       .  A
C1288      C1289   1.386       .  A
C1289      H1295   1.083       .  S
S1290      C1291   1.724       .  A
C1291      C1292   1.387       .  A
C1292      H1296   1.084       .  S
C1297      S1303   1.699       .  A
C1297      C1302   1.388       .  A
C1297      C1298   1.395       .  A
C1298      C1299   1.396       .  A
C1298      H1309   1.083       .  S
C1299      C1308   1.362       .  A
C1299      C1300   1.388       .  A
C1300      S1306   1.705       .  A
C1300      C1301   1.400       .  A
C1301      C1302   1.401       .  A
C1301      H1310   1.083       .  S
C1302      C1305   1.367       .  A
S1303      C1304   1.718       .  A
C1304      C1305   1.383       .  A
C1305      H1311   1.083       .  S
S1306      C1307   1.721       .  A
C1307      C1308   1.379       .  A
C1308      H1312   1.083       .  S
C1313      S1319   1.706       .  A
C1313      C1318   1.387       .  A
C1313      C1314   1.401       .  A
C1314      C1315   1.402       .  A
C1314      H1325   1.083       .  S
C1315      C1324   1.370       .  A
C1315      C1316   1.386       .  A
C1316      S1322   1.715       .  A
C1316      C1317   1.407       .  A
C1317      C1318   1.408       .  A
C1317      H1326   1.083       .  S
C1318      C1321   1.378       .  A
S1319      C1320   1.724       .  A
C1320      C1321   1.390       .  A
C1321      H1327   1.083       .  S
S1322      C1323   1.725       .  A
C1323      C1324   1.389       .  A
C1324      H1328   1.083       .  S
C1329      S1335   1.712       .  A
C1329      C1334   1.387       .  A
C1329      C1330   1.406       .  A
C1330      C1331   1.407       .  A
C1330      H1341   1.083       .  S
C1331      C1340   1.376       .  A
C1331      C1332   1.387       .  A
C1332      S1338   1.703       .  A
C1332      C1333   1.398       .  A
C1333      C1334   1.399       .  A
C1333      H1342   1.083       .  S
C1334      C1337   1.368       .  A
S1335      C1336   1.725       .  A
C1336      C1337   1.382       .  A
C1337      H1343   1.083       .  S
S1338      C1339   1.720       .  A
C1339      C1340   1.389       .  A
C1340      H1344   1.083       .  S
C1345      S1351   1.708       .  A
C1345      C1350   1.386       .  A
C1345      C1346   1.401       .  A
C1346      C1347   1.403       .  A
C1346      H1357   1.083       .  S
C1347      C1356   1.369       .  A
C1347      C1348   1.386       .  A
C1348      S1354   1.706       .  A
C1348      C1349   1.401       .  A
C1349      C1350   1.402       .  A
C1349      H1358   1.083       .  S
C1350      C1353   1.368       .  A
S1351      C1352   1.723       .  A
C1352      C1353   1.386       .  A
C1353      H1359   1.083       .  S
S1354      C1355   1.724       .  A
C1355      C1356   1.387       .  A
C1356      H1360   1.084       .  S
C1361      S1367   1.716       .  A
C1361      C1366   1.386       .  A
C1361      C1362   1.409       .  A
C1362      C1363   1.409       .  A
C1362      H1373   1.083       .  S
C1363      C1372   1.379       .  A
C1363      C1364   1.388       .  A
C1364      S1370   1.699       .  A
C1364      C1365   1.396       .  A
C1365      C1366   1.397       .  A
C1365      H1374   1.083       .  S
C1366      C1369   1.366       .  A
S1367      C1368   1.727       .  A
C1368      C1369   1.384       .  A
C1369      H1375   1.084       .  S
S1370      C1371   1.719       .  A
C1371      C1372   1.389       .  A
C1372      H1376   1.083       .  S
C1377      S1383   1.700       .  A
C1377      C1382   1.387       .  A
C1377      C1378   1.397       .  A
C1378      C1379   1.398       .  A
C1378      H1389   1.083       .  S
C1379      C1388   1.365       .  A
C1379      C1380   1.385       .  A
C1380      S1386   1.721       .  A
C1380      C1381   1.411       .  A
C1381      C1382   1.412       .  A
C1381      H1390   1.082       .  S
C1382      C1385   1.382       .  A
S1383      C1384   1.722       .  A
C1384      C1385   1.393       .  A
C1385      H1391   1.083       .  S
S1386      C1387   1.728       .  A
C1387      C1388   1.386       .  A
C1388      H1392   1.083       .  S
C1393      S1399   1.710       .  A
C1393      C1398   1.387   1_554  A
C1393      C1394   1.406       .  A
C1394      C1395   1.406   1_554  A
C1394      H1405   1.083       .  S
C1395      C1404   1.378   1_556  A
C1395      C1396   1.387       .  A
C1396      S1402   1.701       .  A
C1396      C1397   1.400       .  A
C1397      C1398   1.400       .  A
C1397      H1406   1.083       .  S
C1398      C1401   1.371       .  A
S1399      C1400   1.726       .  A
C1400      C1401   1.385   1_554  A
C1401      H1407   1.083       .  S
S1402      C1403   1.723       .  A
C1403      C1404   1.388   1_556  A
C1404      H1408   1.083       .  S
C1409      S1415   1.703       .  A
C1409      C1414   1.387       .  A
C1409      C1410   1.404       .  A
C1410      C1411   1.403       .  A
C1410      H1421   1.083       .  S
C1411      C1420   1.376       .  A
C1411      C1412   1.387       .  A
C1412      S1418   1.702       .  A
C1412      C1413   1.403       .  A
C1413      C1414   1.402       .  A
C1413      H1422   1.083       .  S
C1414      C1417   1.375       .  A
S1415      C1416   1.723       .  A
C1416      C1417   1.385       .  A
C1417      H1423   1.083       .  S
S1418      C1419   1.722       .  A
C1419      C1420   1.387       .  A
C1420      H1424   1.083       .  S
C1425      S1431   1.705       .  A
C1425      C1430   1.387       .  A
C1425      C1426   1.400       .  A
C1426      C1427   1.401       .  A
C1426      H1437   1.083       .  S
C1427      C1436   1.370       .  A
C1427      C1428   1.387       .  A
C1428      S1434   1.705       .  A
C1428      C1429   1.403       .  A
C1429      C1430   1.403       .  A
C1429      H1438   1.083       .  S
C1430      C1433   1.372       .  A
S1431      C1432   1.722       .  A
C1432      C1433   1.387       .  A
C1433      H1439   1.083       .  S
S1434      C1435   1.725       .  A
C1435      C1436   1.385       .  A
C1436      H1440   1.084       .  S
C1441      S1447   1.704       .  A
C1441      C1446   1.387       .  A
C1441      C1442   1.399       .  A
C1442      C1443   1.401       .  A
C1442      H1453   1.083       .  S
C1443      C1452   1.367       .  A
C1443      C1444   1.385       .  A
C1444      S1450   1.715       .  A
C1444      C1445   1.406       .  A
C1445      C1446   1.407       .  A
C1445      H1454   1.083       .  S
C1446      C1449   1.375       .  A
S1447      C1448   1.722       .  A
C1448      C1449   1.390       .  A
C1449      H1455   1.083       .  S
S1450      C1451   1.726       .  A
C1451      C1452   1.389       .  A
C1452      H1456   1.084       .  S
C1457      S1463   1.716       .  A
C1457      C1462   1.386       .  A
C1457      C1458   1.405       .  A
C1458      C1459   1.407       .  A
C1458      H1469   1.083       .  S
C1459      C1468   1.371       .  A
C1459      C1460   1.386       .  A
C1460      S1466   1.714       .  A
C1460      C1461   1.403       .  A
C1461      C1462   1.405       .  A
C1461      H1470   1.083       .  S
C1462      C1465   1.370       .  A
S1463      C1464   1.724       .  A
C1464      C1465   1.388       .  A
C1465      H1471   1.084       .  S
S1466      C1467   1.721       .  A
C1467      C1468   1.389       .  A
C1468      H1472   1.083       .  S
C1473      S1479   1.718       .  A
C1473      C1478   1.386       .  A
C1473      C1474   1.409       .  A
C1474      C1475   1.410       .  A
C1474      H1485   1.083       .  S
C1475      C1484   1.380       .  A
C1475      C1476   1.387       .  A
C1476      S1482   1.706       .  A
C1476      C1477   1.401       .  A
C1477      C1478   1.402       .  A
C1477      H1486   1.083       .  S
C1478      C1481   1.370       .  A
S1479      C1480   1.726       .  A
C1480      C1481   1.388       .  A
C1481      H1487   1.083       .  S
S1482      C1483   1.724       .  A
C1483      C1484   1.392       .  A
C1484      H1488   1.083       .  S
C1489      S1495   1.715       .  A
C1489      C1494   1.386       .  A
C1489      C1490   1.408       .  A
C1490      C1491   1.408       .  A
C1490      H1501   1.083       .  S
C1491      C1500   1.379       .  A
C1491      C1492   1.388       .  A
C1492      S1498   1.700       .  A
C1492      C1493   1.398       .  A
C1493      C1494   1.399       .  A
C1493      H1502   1.083       .  S
C1494      C1497   1.367       .  A
S1495      C1496   1.725       .  A
C1496      C1497   1.386       .  A
C1497      H1503   1.083       .  S
S1498      C1499   1.722       .  A
C1499      C1500   1.389       .  A
C1500      H1504   1.083       .  S
C1505      S1511   1.703       .  A
C1505      C1510   1.387       .  A
C1505      C1506   1.401       .  A
C1506      C1507   1.401       .  A
C1506      H1517   1.083       .  S
C1507      C1516   1.370       .  A
C1507      C1508   1.387       .  A
C1508      S1514   1.699       .  A
C1508      C1509   1.398       .  A
C1509      C1510   1.399       .  A
C1509      H1518   1.083       .  S
C1510      C1513   1.367       .  A
S1511      C1512   1.723       .  A
C1512      C1513   1.385       .  A
C1513      H1519   1.083       .  S
S1514      C1515   1.723       .  A
C1515      C1516   1.385       .  A
C1516      H1520   1.083       .  S
C1521      S1527   1.704       .  A
C1521      C1526   1.388       .  A
C1521      C1522   1.401       .  A
C1522      C1523   1.402       .  A
C1522      H1533   1.083       .  S
C1523      C1532   1.370       .  A
C1523      C1524   1.388       .  A
C1524      S1530   1.700       .  A
C1524      C1525   1.397       .  A
C1525      C1526   1.397       .  A
C1525      H1534   1.083       .  S
C1526      C1529   1.366       .  A
S1527      C1528   1.721       .  A
C1528      C1529   1.380       .  A
C1529      H1535   1.083       .  S
S1530      C1531   1.719       .  A
C1531      C1532   1.385       .  A
C1532      H1536   1.083       .  S
C1537      S1543   1.708       .  A
C1537      C1542   1.387       .  A
C1537      C1538   1.401       .  A
C1538      C1539   1.403       .  A
C1538      H1549   1.083       .  S
C1539      C1548   1.370       .  A
C1539      C1540   1.386       .  A
C1540      S1546   1.713       .  A
C1540      C1541   1.405       .  A
C1541      C1542   1.406       .  A
C1541      H1550   1.083       .  S
C1542      C1545   1.373       .  A
S1543      C1544   1.722       .  A
C1544      C1545   1.390       .  A
C1545      H1551   1.083       .  S
S1546      C1547   1.725       .  A
C1547      C1548   1.388       .  A
C1548      H1552   1.083       .  S
C1553      S1559   1.704       .  A
C1553      C1558   1.387       .  A
C1553      C1554   1.399       .  A
C1554      C1555   1.400       .  A
C1554      H1565   1.083       .  S
C1555      C1564   1.369       .  A
C1555      C1556   1.385       .  A
C1556      S1562   1.719       .  A
C1556      C1557   1.410       .  A
C1557      C1558   1.411       .  A
C1557      H1566   1.083       .  S
C1558      C1561   1.380       .  A
S1559      C1560   1.722       .  A
C1560      C1561   1.392       .  A
C1561      H1567   1.083       .  S
S1562      C1563   1.728       .  A
C1563      C1564   1.388       .  A
C1564      H1568   1.083       .  S
C1569      S1575   1.708       .  A
C1569      C1574   1.386       .  A
C1569      C1570   1.402       .  A
C1570      C1571   1.404       .  A
C1570      H1581   1.083       .  S
C1571      C1580   1.370       .  A
C1571      C1572   1.386       .  A
C1572      S1578   1.703       .  A
C1572      C1573   1.398       .  A
C1573      C1574   1.400       .  A
C1573      H1582   1.083       .  S
C1574      C1577   1.365       .  A
S1575      C1576   1.724       .  A
C1576      C1577   1.387       .  A
C1577      H1583   1.084       .  S
S1578      C1579   1.722       .  A
C1579      C1580   1.388       .  A
C1580      H1584   1.083       .  S
C1585      S1591   1.705       .  A
C1585      C1590   1.388       .  A
C1585      C1586   1.398       .  A
C1586      C1587   1.400       .  A
C1586      H1597   1.083       .  S
C1587      C1596   1.365       .  A
C1587      C1588   1.388       .  A
C1588      S1594   1.709       .  A
C1588      C1589   1.401       .  A
C1589      C1590   1.402       .  A
C1589      H1598   1.083       .  S
C1590      C1593   1.368       .  A
S1591      C1592   1.719       .  A
C1592      C1593   1.384       .  A
C1593      H1599   1.083       .  S
S1594      C1595   1.720       .  A
C1595      C1596   1.384       .  A
C1596      H1600   1.084       .  S
C1601      S1607   1.705       .  A
C1601      C1606   1.387       .  A
C1601      C1602   1.405       .  A
C1602      C1603   1.403       .  A
C1602      H1613   1.083       .  S
C1603      C1612   1.377       .  A
C1603      C1604   1.387       .  A
C1604      S1610   1.699       .  A
C1604      C1605   1.401       .  A
C1605      C1606   1.400       .  A
C1605      H1614   1.083       .  S
C1606      C1609   1.373       .  A
S1607      C1608   1.726       .  A
C1608      C1609   1.385       .  A
C1609      H1615   1.083       .  S
S1610      C1611   1.725       .  A
C1611      C1612   1.387       .  A
C1612      H1616   1.083       .  S
C1617      S1623   1.702       .  A
C1617      C1622   1.387       .  A
C1617      C1618   1.399       .  A
C1618      C1619   1.400       .  A
C1618      H1629   1.083       .  S
C1619      C1628   1.369       .  A
C1619      C1620   1.386       .  A
C1620      S1626   1.717       .  A
C1620      C1621   1.409       .  A
C1621      C1622   1.409       .  A
C1621      H1630   1.083       .  S
C1622      C1625   1.379       .  A
S1623      C1624   1.722       .  A
C1624      C1625   1.392       .  A
C1625      H1631   1.083       .  S
S1626      C1627   1.727       .  A
C1627      C1628   1.387       .  A
C1628      H1632   1.083       .  S
C1633      S1639   1.700       .  A
C1633      C1638   1.387       .  A
C1633      C1634   1.399       .  A
C1634      C1635   1.399       .  A
C1634      H1645   1.083       .  S
C1635      C1644   1.369       .  A
C1635      C1636   1.386       .  A
C1636      S1642   1.715       .  A
C1636      C1637   1.409       .  A
C1637      C1638   1.409       .  A
C1637      H1646   1.083       .  S
C1638      C1641   1.381       .  A
S1639      C1640   1.724       .  A
C1640      C1641   1.390       .  A
C1641      H1647   1.083       .  S
S1642      C1643   1.727       .  A
C1643      C1644   1.387       .  A
C1644      H1648   1.083       .  S
C1649      S1655   1.696       .  A
C1649      C1654   1.387       .  A
C1649      C1650   1.397       .  A
C1650      C1651   1.396       .  A
C1650      H1661   1.083       .  S
C1651      C1660   1.368       .  A
C1651      C1652   1.386       .  A
C1652      S1658   1.715       .  A
C1652      C1653   1.410       .  A
C1653      C1654   1.410       .  A
C1653      H1662   1.083       .  S
C1654      C1657   1.382       .  A
S1655      C1656   1.722       .  A
C1656      C1657   1.392       .  A
C1657      H1663   1.083       .  S
S1658      C1659   1.729       .  A
C1659      C1660   1.382       .  A
C1660      H1664   1.083       .  S
C1665      S1671   1.717       .  A
C1665      C1670   1.385       .  A
C1665      C1666   1.410       .  A
C1666      C1667   1.411       .  A
C1666      H1677   1.083       .  S
C1667      C1676   1.379       .  A
C1667      C1668   1.387       .  A
C1668      S1674   1.696       .  A
C1668      C1669   1.394       .  A
C1669      C1670   1.395       .  A
C1669      H1678   1.083       .  S
C1670      C1673   1.363       .  A
S1671      C1672   1.729       .  A
C1672      C1673   1.385       .  A
C1673      H1679   1.084       .  S
S1674      C1675   1.720       .  A
C1675      C1676   1.392       .  A
C1676      H1680   1.083       .  S
C1681      S1687   1.705       .  A
C1681      C1686   1.387       .  A
C1681      C1682   1.405       .  A
C1682      C1683   1.404       .  A
C1682      H1693   1.083       .  S
C1683      C1692   1.378       .  A
C1683      C1684   1.387       .  A
C1684      S1690   1.702       .  A
C1684      C1685   1.403       .  A
C1685      C1686   1.402       .  A
C1685      H1694   1.083       .  S
C1686      C1689   1.375       .  A
S1687      C1688   1.723       .  A
C1688      C1689   1.386       .  A
C1689      H1695   1.083       .  S
S1690      C1691   1.723       .  A
C1691      C1692   1.387       .  A
C1692      H1696   1.083       .  S
C1697      S1703   1.706       .  A
C1697      C1702   1.387       .  A
C1697      C1698   1.401       .  A
C1698      C1699   1.403       .  A
C1698      H1709   1.083       .  S
C1699      C1708   1.371       .  A
C1699      C1700   1.387       .  A
C1700      S1706   1.702       .  A
C1700      C1701   1.400       .  A
C1701      C1702   1.400       .  A
C1701      H1710   1.083       .  S
C1702      C1705   1.368       .  A
S1703      C1704   1.724       .  A
C1704      C1705   1.385       .  A
C1705      H1711   1.083       .  S
S1706      C1707   1.724       .  A
C1707      C1708   1.386       .  A
C1708      H1712   1.084       .  S
C1713      S1719   1.707       .  A
C1713      C1718   1.387       .  A
C1713      C1714   1.405       .  A
C1714      C1715   1.405       .  A
C1714      H1725   1.083       .  S
C1715      C1724   1.377       .  A
C1715      C1716   1.387       .  A
C1716      S1722   1.706       .  A
C1716      C1717   1.404       .  A
C1717      C1718   1.404       .  A
C1717      H1726   1.083       .  S
C1718      C1721   1.376       .  A
S1719      C1720   1.724       .  A
C1720      C1721   1.388       .  A
C1721      H1727   1.083       .  S
S1722      C1723   1.723       .  A
C1723      C1724   1.388       .  A
C1724      H1728   1.083       .  S
C1729      S1735   1.703       .  A
C1729      C1734   1.387       .  A
C1729      C1730   1.403       .  A
C1730      C1731   1.402       .  A
C1730      H1741   1.083       .  S
C1731      C1740   1.374       .  A
C1731      C1732   1.387       .  A
C1732      S1738   1.702       .  A
C1732      C1733   1.402       .  A
C1733      C1734   1.401       .  A
C1733      H1742   1.083       .  S
C1734      C1737   1.373       .  A
S1735      C1736   1.725       .  A
C1736      C1737   1.386       .  A
C1737      H1743   1.083       .  S
S1738      C1739   1.725       .  A
C1739      C1740   1.386       .  A
C1740      H1744   1.083       .  S
C1745      S1751   1.699       .  A
C1745      C1750   1.387       .  A
C1745      C1746   1.397       .  A
C1746      C1747   1.398       .  A
C1746      H1757   1.083       .  S
C1747      C1756   1.366       .  A
C1747      C1748   1.386       .  A
C1748      S1754   1.710       .  A
C1748      C1749   1.404       .  A
C1749      C1750   1.405       .  A
C1749      H1758   1.083       .  S
C1750      C1753   1.373       .  A
S1751      C1752   1.722       .  A
C1752      C1753   1.388       .  A
C1753      H1759   1.083       .  S
S1754      C1755   1.725       .  A
C1755      C1756   1.384       .  A
C1756      H1760   1.083       .  S
C1761      S1767   1.704       .  A
C1761      C1766   1.388       .  A
C1761      C1762   1.398       .  A
C1762      C1763   1.400       .  A
C1762      H1773   1.083       .  S
C1763      C1772   1.364       .  A
C1763      C1764   1.388       .  A
C1764      S1770   1.707       .  A
C1764      C1765   1.399       .  A
C1765      C1766   1.400       .  A
C1765      H1774   1.083       .  S
C1766      C1769   1.366       .  A
S1767      C1768   1.719       .  A
C1768      C1769   1.381       .  A
C1769      H1775   1.084       .  S
S1770      C1771   1.720       .  A
C1771      C1772   1.384       .  A
C1772      H1776   1.084       .  S
C1777      S1783   1.701       .  A
C1777      C1782   1.387   1_554  A
C1777      C1778   1.402       .  A
C1778      C1779   1.401   1_554  A
C1778      H1789   1.083       .  S
C1779      C1788   1.375       .  A
C1779      C1780   1.387       .  A
C1780      S1786   1.704       .  A
C1780      C1781   1.405       .  A
C1781      C1782   1.404       .  A
C1781      H1790   1.083       .  S
C1782      C1785   1.378       .  A
S1783      C1784   1.725       .  A
C1784      C1785   1.388   1_554  A
C1785      H1791   1.083       .  S
S1786      C1787   1.728       .  A
C1787      C1788   1.386       .  A
C1788      H1792   1.083   1_556  S
C1793      S1799   1.719       .  A
C1793      C1798   1.385       .  A
C1793      C1794   1.411       .  A
C1794      C1795   1.411       .  A
C1794      H1805   1.083       .  S
C1795      C1804   1.382       .  A
C1795      C1796   1.387       .  A
C1796      S1802   1.706       .  A
C1796      C1797   1.402       .  A
C1797      C1798   1.402       .  A
C1797      H1806   1.083       .  S
C1798      C1801   1.372       .  A
S1799      C1800   1.728       .  A
C1800      C1801   1.389       .  A
C1801      H1807   1.083       .  S
S1802      C1803   1.725       .  A
C1803      C1804   1.393       .  A
C1804      H1808   1.083       .  S
C1809      S1815   1.719       .  A
C1809      C1814   1.386       .  A
C1809      C1810   1.411       .  A
C1810      C1811   1.411       .  A
C1810      H1821   1.083       .  S
C1811      C1820   1.382       .  A
C1811      C1812   1.387       .  A
C1812      S1818   1.701       .  A
C1812      C1813   1.398       .  A
C1813      C1814   1.399       .  A
C1813      H1822   1.083       .  S
C1814      C1817   1.368       .  A
S1815      C1816   1.728       .  A
C1816      C1817   1.385       .  A
C1817      H1823   1.083       .  S
S1818      C1819   1.722       .  A
C1819      C1820   1.393       .  A
C1820      H1824   1.083       .  S
C1825      S1831   1.704       .  A
C1825      C1830   1.386       .  A
C1825      C1826   1.398       .  A
C1826      C1827   1.400       .  A
C1826      H1837   1.083       .  S
C1827      C1836   1.364       .  A
C1827      C1828   1.386       .  A
C1828      S1834   1.707       .  A
C1828      C1829   1.400       .  A
C1829      C1830   1.402       .  A
C1829      H1838   1.083       .  S
C1830      C1833   1.367       .  A
S1831      C1832   1.722       .  A
C1832      C1833   1.386       .  A
C1833      H1839   1.083       .  S
S1834      C1835   1.723       .  A
C1835      C1836   1.388       .  A
C1836      H1840   1.084       .  S
C1841      S1847   1.705       .  A
C1841      C1846   1.387       .  A
C1841      C1842   1.398       .  A
C1842      C1843   1.401       .  A
C1842      H1853   1.083       .  S
C1843      C1852   1.365       .  A
C1843      C1844   1.386       .  A
C1844      S1850   1.710       .  A
C1844      C1845   1.403       .  A
C1845      C1846   1.404       .  A
C1845      H1854   1.083       .  S
C1846      C1849   1.371       .  A
S1847      C1848   1.721       .  A
C1848      C1849   1.388       .  A
C1849      H1855   1.083       .  S
S1850      C1851   1.724       .  A
C1851      C1852   1.388       .  A
C1852      H1856   1.084       .  S
C1857      S1863   1.702       .  A
C1857      C1862   1.388       .  A
C1857      C1858   1.395       .  A
C1858      C1859   1.397       .  A
C1858      H1869   1.083       .  S
C1859      C1868   1.360       .  A
C1859      C1860   1.387       .  A
C1860      S1866   1.712       .  A
C1860      C1861   1.402       .  A
C1861      C1862   1.404       .  A
C1861      H1870   1.083       .  S
C1862      C1865   1.368       .  A
S1863      C1864   1.718       .  A
C1864      C1865   1.387       .  A
C1865      H1871   1.083       .  S
S1866      C1867   1.723       .  A
C1867      C1868   1.383       .  A
C1868      H1872   1.084       .  S
C1873      S1879   1.709       .  A
C1873      C1878   1.387       .  A
C1873      C1874   1.404       .  A
C1874      C1875   1.404       .  A
C1874      H1885   1.083       .  S
C1875      C1884   1.376       .  A
C1875      C1876   1.387       .  A
C1876      S1882   1.712       .  A
C1876      C1877   1.407       .  A
C1877      C1878   1.407       .  A
C1877      H1886   1.083       .  S
C1878      C1881   1.378       .  A
S1879      C1880   1.724       .  A
C1880      C1881   1.390       .  A
C1881      H1887   1.083       .  S
S1882      C1883   1.725       .  A
C1883      C1884   1.388       .  A
C1884      H1888   1.083       .  S
C1889      S1895   1.711       .  A
C1889      C1894   1.387       .  A
C1889      C1890   1.402       .  A
C1890      C1891   1.404       .  A
C1890      H1901   1.083       .  S
C1891      C1900   1.368       .  A
C1891      C1892   1.387       .  A
C1892      S1898   1.710       .  A
C1892      C1893   1.400       .  A
C1893      C1894   1.403       .  A
C1893      H1902   1.083       .  S
C1894      C1897   1.367       .  A
S1895      C1896   1.722       .  A
C1896      C1897   1.385       .  A
C1897      H1903   1.084       .  S
S1898      C1899   1.720       .  A
C1899      C1900   1.387       .  A
C1900      H1904   1.084       .  S
C1905      S1911   1.698       .  A
C1905      C1910   1.387       .  A
C1905      C1906   1.398       .  A
C1906      C1907   1.398       .  A
C1906      H1917   1.083       .  S
C1907      C1916   1.369       .  A
C1907      C1908   1.386       .  A
C1908      S1914   1.714       .  A
C1908      C1909   1.409       .  A
C1909      C1910   1.408       .  A
C1909      H1918   1.083       .  S
C1910      C1913   1.381       .  A
S1911      C1912   1.723       .  A
C1912      C1913   1.391       .  A
C1913      H1919   1.083       .  S
S1914      C1915   1.727       .  A
C1915      C1916   1.386       .  A
C1916      H1920   1.083       .  S
C1921      S1927   1.700       .  A
C1921      C1926   1.387       .  A
C1921      C1922   1.396       .  A
C1922      C1923   1.397       .  A
C1922      H1933   1.083       .  S
C1923      C1932   1.366       .  A
C1923      C1924   1.386       .  A
C1924      S1930   1.717       .  A
C1924      C1925   1.409       .  A
C1925      C1926   1.410       .  A
C1925      H1934   1.083       .  S
C1926      C1929   1.378       .  A
S1927      C1928   1.719       .  A
C1928      C1929   1.391       .  A
C1929      H1935   1.083       .  S
S1930      C1931   1.726       .  A
C1931      C1932   1.383       .  A
C1932      H1936   1.084       .  S
C1937      S1943   1.706       .  A
C1937      C1942   1.387       .  A
C1937      C1938   1.400       .  A
C1938      C1939   1.402       .  A
C1938      H1949   1.083       .  S
C1939      C1948   1.369       .  A
C1939      C1940   1.386       .  A
C1940      S1946   1.717       .  A
C1940      C1941   1.407       .  A
C1941      C1942   1.408       .  A
C1941      H1950   1.083       .  S
C1942      C1945   1.377       .  A
S1943      C1944   1.722       .  A
C1944      C1945   1.391       .  A
C1945      H1951   1.083       .  S
S1946      C1947   1.725       .  A
C1947      C1948   1.388       .  A
C1948      H1952   1.083       .  S
C1953      S1959   1.706       .  A
C1953      C1958   1.388       .  A
C1953      C1954   1.397       .  A
C1954      C1955   1.399       .  A
C1954      H1965   1.083       .  S
C1955      C1964   1.363       .  A
C1955      C1956   1.387       .  A
C1956      S1962   1.710       .  A
C1956      C1957   1.402       .  A
C1957      C1958   1.403       .  A
C1957      H1966   1.083       .  S
C1958      C1961   1.368       .  A
S1959      C1960   1.716       .  A
C1960      C1961   1.384       .  A
C1961      H1967   1.084       .  S
S1962      C1963   1.723       .  A
C1963      C1964   1.383       .  A
C1964      H1968   1.083       .  S
C1969      S1975   1.701       .  A
C1969      C1974   1.387       .  A
C1969      C1970   1.395       .  A
C1970      C1971   1.398       .  A
C1970      H1981   1.084       .  S
C1971      C1980   1.362       .  A
C1971      C1972   1.386       .  A
C1972      S1978   1.712       .  A
C1972      C1973   1.403       .  A
C1973      C1974   1.405       .  A
C1973      H1982   1.084       .  S
C1974      C1977   1.371       .  A
S1975      C1976   1.720       .  A
C1976      C1977   1.388       .  A
C1977      H1983   1.084       .  S
S1978      C1979   1.723       .  A
C1979      C1980   1.386       .  A
C1980      H1984   1.085       .  S
C1985      S1991   1.700       .  A
C1985      C1990   1.387       .  A
C1985      C1986   1.402       .  A
C1986      C1987   1.400       .  A
C1986      H1997   1.083       .  S
C1987      C1996   1.374       .  A
C1987      C1988   1.387       .  A
C1988      S1994   1.708       .  A
C1988      C1989   1.407       .  A
C1989      C1990   1.405       .  A
C1989      H1998   1.083       .  S
C1990      C1993   1.379       .  A
S1991      C1992   1.726       .  A
C1992      C1993   1.389       .  A
C1993      H1999   1.083       .  S
S1994      C1995   1.727       .  A
C1995      C1996   1.386       .  A
C1996      H2000   1.083       .  S
C2001      S2007   1.704       .  A
C2001      C2006   1.387       .  A
C2001      C2002   1.403       .  A
C2002      C2003   1.402       .  A
C2002      H2013   1.083       .  S
C2003      C2012   1.376       .  A
C2003      C2004   1.387       .  A
C2004      S2010   1.708       .  A
C2004      C2005   1.407       .  A
C2005      C2006   1.406       .  A
C2005      H2014   1.083       .  S
C2006      C2009   1.379       .  A
S2007      C2008   1.723       .  A
C2008      C2009   1.389       .  A
C2009      H2015   1.083       .  S
S2010      C2011   1.726       .  A
C2011      C2012   1.386       .  A
C2012      H2016   1.083       .  S
C2017      S2023   1.709       .  A
C2017      C2022   1.386       .  A
C2017      C2018   1.402       .  A
C2018      C2019   1.404       .  A
C2018      H2029   1.083       .  S
C2019      C2028   1.370       .  A
C2019      C2020   1.387       .  A
C2020      S2026   1.701       .  A
C2020      C2021   1.397       .  A
C2021      C2022   1.398       .  A
C2021      H2030   1.083       .  S
C2022      C2025   1.365       .  A
S2023      C2024   1.725       .  A
C2024      C2025   1.384       .  A
C2025      H2031   1.084       .  S
S2026      C2027   1.722       .  A
C2027      C2028   1.387       .  A
C2028      H2032   1.084       .  S
C2033      S2039   1.716       .  A
C2033      C2038   1.386       .  A
C2033      C2034   1.404       .  A
C2034      C2035   1.407       .  A
C2034      H2045   1.083       .  S
C2035      C2044   1.370       .  A
C2035      C2036   1.386       .  A
C2036      S2042   1.712       .  A
C2036      C2037   1.400       .  A
C2037      C2038   1.403       .  A
C2037      H2046   1.083       .  S
C2038      C2041   1.366       .  A
S2039      C2040   1.724       .  A
C2040      C2041   1.389       .  A
C2041      H2047   1.083       .  S
S2042      C2043   1.722       .  A
C2043      C2044   1.390       .  A
C2044      H2048   1.083   1_556  S
C2049      S2055   1.713       .  A
C2049      C2054   1.387       .  A
C2049      C2050   1.408       .  A
C2050      C2051   1.408       .  A
C2050      H2061   1.083       .  S
C2051      C2060   1.379       .  A
C2051      C2052   1.387       .  A
C2052      S2058   1.700       .  A
C2052      C2053   1.399       .  A
C2053      C2054   1.399       .  A
C2053      H2062   1.083       .  S
C2054      C2057   1.369       .  A
S2055      C2056   1.725       .  A
C2056      C2057   1.385       .  A
C2057      H2063   1.083       .  S
S2058      C2059   1.723       .  A
C2059      C2060   1.390       .  A
C2060      H2064   1.083       .  S
C2065      S2071   1.700       .  A
C2065      C2070   1.387       .  A
C2065      C2066   1.398       .  A
C2066      C2067   1.398       .  A
C2066      H2077   1.083       .  S
C2067      C2076   1.369       .  A
C2067      C2068   1.386       .  A
C2068      S2074   1.716       .  A
C2068      C2069   1.410       .  A
C2069      C2070   1.410       .  A
C2069      H2078   1.083       .  S
C2070      C2073   1.382       .  A
S2071      C2072   1.722       .  A
C2072      C2073   1.392       .  A
C2073      H2079   1.083       .  S
S2074      C2075   1.728       .  A
C2075      C2076   1.386       .  A
C2076      H2080   1.083       .  S
C2081      S2087   1.714       .  A
C2081      C2086   1.386       .  A
C2081      C2082   1.405       .  A
C2082      C2083   1.407       .  A
C2082      H2093   1.083       .  S
C2083      C2092   1.373       .  A
C2083      C2084   1.386       .  A
C2084      S2090   1.714       .  A
C2084      C2085   1.404       .  A
C2085      C2086   1.406       .  A
C2085      H2094   1.083       .  S
C2086      C2089   1.373       .  A
S2087      C2088   1.725       .  A
C2088      C2089   1.389       .  A
C2089      H2095   1.084       .  S
S2090      C2091   1.722       .  A
C2091      C2092   1.389       .  A
C2092      H2096   1.084       .  S
C2097      S2103   1.706       .  A
C2097      C2102   1.386       .  A
C2097      C2098   1.401       .  A
C2098      C2099   1.403       .  A
C2098      H2109   1.083       .  S
C2099      C2108   1.371       .  A
C2099      C2100   1.386       .  A
C2100      S2106   1.713       .  A
C2100      C2101   1.406       .  A
C2101      C2102   1.407       .  A
C2101      H2110   1.083       .  S
C2102      C2105   1.377       .  A
S2103      C2104   1.724       .  A
C2104      C2105   1.391       .  A
C2105      H2111   1.083       .  S
S2106      C2107   1.725       .  A
C2107      C2108   1.390       .  A
C2108      H2112   1.084       .  S
C2113      S2119   1.706       .  A
C2113      C2118   1.387       .  A
C2113      C2114   1.404       .  A
C2114      C2115   1.404       .  A
C2114      H2125   1.083       .  S
C2115      C2124   1.375       .  A
C2115      C2116   1.387       .  A
C2116      S2122   1.706       .  A
C2116      C2117   1.403       .  A
C2117      C2118   1.403       .  A
C2117      H2126   1.083       .  S
C2118      C2121   1.375       .  A
S2119      C2120   1.727       .  A
C2120      C2121   1.387       .  A
C2121      H2127   1.083       .  S
S2122      C2123   1.725       .  A
C2123      C2124   1.388       .  A
C2124      H2128   1.083       .  S
C2129      S2135   1.697       .  A
C2129      C2134   1.387       .  A
C2129      C2130   1.400       .  A
C2130      C2131   1.399       .  A
C2130      H2141   1.083       .  S
C2131      C2140   1.373       .  A
C2131      C2132   1.387       .  A
C2132      S2138   1.711       .  A
C2132      C2133   1.410       .  A
C2133      C2134   1.408       .  A
C2133      H2142   1.083       .  S
C2134      C2137   1.384       .  A
S2135      C2136   1.725       .  A
C2136      C2137   1.391       .  A
C2137      H2143   1.083       .  S
S2138      C2139   1.729       .  A
C2139      C2140   1.385       .  A
C2140      H2144   1.083       .  S
C2145      S2151   1.711       .  A
C2145      C2150   1.387       .  A
C2145      C2146   1.404       .  A
C2146      C2147   1.405       .  A
C2146      H2157   1.083       .  S
C2147      C2156   1.374       .  A
C2147      C2148   1.387       .  A
C2148      S2154   1.710       .  A
C2148      C2149   1.403       .  A
C2149      C2150   1.404       .  A
C2149      H2158   1.083       .  S
C2150      C2153   1.374       .  A
S2151      C2152   1.723       .  A
C2152      C2153   1.387       .  A
C2153      H2159   1.083       .  S
S2154      C2155   1.722       .  A
C2155      C2156   1.387       .  A
C2156      H2160   1.083       .  S
C2161      S2167   1.707       .  A
C2161      C2166   1.386       .  A
C2161      C2162   1.399       .  A
C2162      C2163   1.402       .  A
C2162      H2173   1.083       .  S
C2163      C2172   1.365       .  A
C2163      C2164   1.385       .  A
C2164      S2170   1.712       .  A
C2164      C2165   1.403       .  A
C2165      C2166   1.405       .  A
C2165      H2174   1.083       .  S
C2166      C2169   1.370       .  A
S2167      C2168   1.722       .  A
C2168      C2169   1.389       .  A
C2169      H2175   1.083       .  S
S2170      C2171   1.723       .  A
C2171      C2172   1.389       .  A
C2172      H2176   1.084       .  S
C2177      S2183   1.706   1_554  A
C2177      C2182   1.387       .  A
C2177      C2178   1.401   1_554  A
C2178      C2179   1.402   1_556  A
C2178      H2189   1.083       .  S
C2179      C2188   1.371       .  A
C2179      C2180   1.387       .  A
C2180      S2186   1.702       .  A
C2180      C2181   1.400       .  A
C2181      C2182   1.400       .  A
C2181      H2190   1.083       .  S
C2182      C2185   1.368       .  A
S2183      C2184   1.722   1_556  A
C2184      C2185   1.386       .  A
C2185      H2191   1.083       .  S
S2186      C2187   1.724       .  A
C2187      C2188   1.385       .  A
C2188      H2192   1.083   1_554  S
C2193      S2199   1.702       .  A
C2193      C2198   1.387       .  A
C2193      C2194   1.399       .  A
C2194      C2195   1.399       .  A
C2194      H2205   1.083       .  S
C2195      C2204   1.369       .  A
C2195      C2196   1.386       .  A
C2196      S2202   1.716       .  A
C2196      C2197   1.409       .  A
C2197      C2198   1.410       .  A
C2197      H2206   1.083       .  S
C2198      C2201   1.381       .  A
S2199      C2200   1.722       .  A
C2200      C2201   1.392       .  A
C2201      H2207   1.083       .  S
S2202      C2203   1.726       .  A
C2203      C2204   1.385       .  A
C2204      H2208   1.083       .  S
C2209      S2215   1.720       .  A
C2209      C2214   1.386       .  A
C2209      C2210   1.410       .  A
C2210      C2211   1.411       .  A
C2210      H2221   1.083       .  S
C2211      C2220   1.380       .  A
C2211      C2212   1.387       .  A
C2212      S2218   1.706       .  A
C2212      C2213   1.399       .  A
C2213      C2214   1.400       .  A
C2213      H2222   1.083       .  S
C2214      C2217   1.368       .  A
S2215      C2216   1.729       .  A
C2216      C2217   1.387       .  A
C2217      H2223   1.083       .  S
S2218      C2219   1.722       .  A
C2219      C2220   1.393       .  A
C2220      H2224   1.083       .  S
C2225      S2231   1.709       .  A
C2225      C2230   1.387       .  A
C2225      C2226   1.406       .  A
C2226      C2227   1.405       .  A
C2226      H2237   1.083       .  S
C2227      C2236   1.379       .  A
C2227      C2228   1.387       .  A
C2228      S2234   1.702       .  A
C2228      C2229   1.403       .  A
C2229      C2230   1.402       .  A
C2229      H2238   1.083       .  S
C2230      C2233   1.375       .  A
S2231      C2232   1.725       .  A
C2232      C2233   1.388       .  A
C2233      H2239   1.083       .  S
S2234      C2235   1.726       .  A
C2235      C2236   1.388       .  A
C2236      H2240   1.083       .  S
