geometry optimzed in LAMMPS
_audit_creation_date              2020-12-01 
_audit_creation_method            'lammps2cif' 
_symmetry_space_group_name_H-M    'P1' 
_symmetry_Int_Tables_number       1 
_symmetry_cell_setting            triclinic 
loop_ 
_symmetry_equiv_pos_as_xyz 
  x,y,z 
_cell_length_a                    74.02707935 
_cell_length_b                    74.13476714062622 
_cell_length_c                    29.45730394633768 
_cell_angle_alpha                 89.8871651926458 
_cell_angle_beta                  90.25838406676262 
_cell_angle_gamma                 89.96758989171448 
loop_ 
_atom_site_label 
_atom_site_type_symbol 
_atom_site_fract_x 
_atom_site_fract_y 
_atom_site_fract_z 
_atom_site_charge 
O1          O  0.87897192  0.21034975  0.41847942    -0.82300
C2          C  0.85115403  0.25488456  0.55728748     0.97000
O3          O  0.86742998  0.25005905  0.55305825    -0.71400
O4          O  0.87095839  0.21486237  0.54916809    -0.75000
Al5        Al  0.87910627  0.23394418  0.51180660     1.49000
C6          C  0.86809955  0.19895715  0.53595897     0.92300
O7          O  0.83237882  0.20972739  0.47185063    -0.81200
O8          O  0.85104890  0.25085553  0.40197123    -0.74800
Al9        Al  0.85583968  0.21119872  0.44613796     1.90100
O10         O  0.82444632  0.23757579  0.45681157    -0.73900
O11         O  0.86479987  0.26887497  0.46872334    -0.73700
O12         O  0.83998127  0.25317698  0.52539743    -0.79400
O13         O  0.88959268  0.25321866  0.47874300    -0.77600
O14         O  0.86046886  0.23202183  0.47399522    -1.13700
O15         O  0.89468271  0.21825872  0.47859360    -0.72900
C16         C  0.89386176  0.21134403  0.43948891     0.97800
C17         C  0.82039543  0.22176672  0.46893022     0.94200
Al18       Al  0.84625913  0.25099204  0.46399703     1.55600
O19         O  0.86385049  0.19595216  0.49505140    -0.77500
C20         C  0.88181346  0.26779442  0.46853723     0.98400
C21         C  0.84808165  0.23796660  0.37541244     0.93200
O22         O  0.84700696  0.22194512  0.39023756    -0.82900
O23         O  0.63445532  0.21556677  0.62579218    -0.82300
C24         C  0.66145751  0.25254930  0.47256487     0.97000
O25         O  0.64522214  0.24789357  0.47871289    -0.71400
O26         O  0.64141916  0.21364901  0.49538389    -0.75000
Al27       Al  0.63356509  0.23455592  0.52596878     1.49000
C28         C  0.64504675  0.19867100  0.51327519     0.92300
O29         O  0.68084965  0.21302948  0.57289577    -0.81200
O30         O  0.66194543  0.25710162  0.62937598    -0.74800
Al31       Al  0.65737830  0.21538079  0.59763842     1.90100
O32         O  0.68853021  0.24142192  0.57833219    -0.73900
O33         O  0.64780027  0.27165493  0.55632460    -0.73700
O34         O  0.67249204  0.25329832  0.50513170    -0.79400
O35         O  0.62317117  0.25546154  0.55197337    -0.77600
O36         O  0.65241568  0.23468870  0.56351521    -1.13700
O37         O  0.61808887  0.22109085  0.56522777    -0.72900
C38         C  0.61936622  0.21574619  0.60588998     0.97800
C39         C  0.69278702  0.22512039  0.57208449     0.94200
Al40       Al  0.66649600  0.25420198  0.56705861     1.55600
O41         O  0.64964713  0.19759615  0.55443612    -0.77500
C42         C  0.63079925  0.27050781  0.55656298     0.98400
C43         C  0.66427632  0.24519891  0.65937360     0.93200
O44         O  0.66583383  0.22873959  0.64906404    -0.82900
O45         O  0.87450391  0.29258207  0.04844110    -0.82300
C46         C  0.84589748  0.29727847  0.87263529     0.97000
O47         O  0.84078366  0.28595648  0.90192166    -0.71400
O48         O  0.86751459  0.26671560  0.93422564    -0.75000
Al49       Al  0.84953494  0.28120339  0.96214500     1.49000
C50         C  0.88297465  0.26360994  0.95033654     0.92300
O51         O  0.89749311  0.30569375  0.93972618    -0.81200
O52         O  0.85887992  0.33436119  0.99739011    -0.74800
Al53       Al  0.88503929  0.29914286  0.99292707     1.90100
O54         O  0.88018099  0.32859649  0.92157802    -0.73900
O55         O  0.83130263  0.31901512  0.95564972    -0.73700
O56         O  0.85371783  0.31163125  0.88378330    -0.79400
O57         O  0.82981045  0.29278624  0.98944044    -0.77600
O58         O  0.86361314  0.30064615  0.96550575    -1.13700
O59         O  0.85537391  0.27263699  0.02194416    -0.72900
C60         C  0.86355885  0.27986686  0.05510226     0.97800
C61         C  0.89495402  0.32008114  0.91774601     0.94200
Al62       Al  0.85651427  0.32162972  0.94157853     1.55600
O63         O  0.89001945  0.27446495  0.97810203    -0.77500
C64         C  0.82273225  0.30766731  0.97920732     0.98400
C65         C  0.87362672  0.33550195  0.01864622     0.93200
O66         O  0.88550740  0.32340867  0.01467647    -0.82900
O67         O  0.63931267  0.30077156  0.98684074    -0.82300
C68         C  0.66859268  0.30310010  0.16241807     0.97000
O69         O  0.67398853  0.29289833  0.13094192    -0.71400
O70         O  0.64680745  0.27432625  0.09976285    -0.75000
Al71       Al  0.66458888  0.28871172  0.07144410     1.49000
C72         C  0.63084286  0.27197819  0.08621793     0.92300
O73         O  0.61680216  0.31443340  0.09627894    -0.81200
O74         O  0.65678985  0.34204493  0.04115825    -0.74800
Al75       Al  0.62923648  0.30755642  0.04295015     1.90100
O76         O  0.63472906  0.33672432  0.11478059    -0.73900
O77         O  0.68354614  0.32531839  0.08347587    -0.73700
O78         O  0.66016035  0.31738895  0.15319318    -0.79400
O79         O  0.68394090  0.30056560  0.04316472    -0.77600
O80         O  0.65068447  0.30828948  0.07007238    -1.13700
O81         O  0.65824245  0.28040272  0.01226305    -0.72900
C82         C  0.65025399  0.28810139  0.97960380     0.97800
C83         C  0.61953160  0.32904010  0.11706221     0.94200
Al84       Al  0.65824867  0.32864967  0.09610643     1.55600
O85         O  0.62369652  0.28302226  0.05876276    -0.77500
C86         C  0.69150831  0.31477127  0.05651356     0.98400
C87         C  0.64246510  0.34356746  0.01817575     0.93200
O88         O  0.63004368  0.33190860  0.02118273    -0.82900
O89         O  0.53718737  0.39927685  0.79769265    -0.82300
C90         C  0.54383389  0.43097000  0.62514985     0.97000
O91         O  0.53283821  0.43594668  0.65538132    -0.71400
O92         O  0.51278704  0.40941428  0.68370518    -0.75000
Al93       Al  0.52754781  0.42640237  0.71432398     1.49000
C94         C  0.50963581  0.39346718  0.69596892     0.92300
O95         O  0.55254104  0.37843730  0.68715343    -0.81200
O96         O  0.58000263  0.41660372  0.75108850    -0.74800
Al97       Al  0.54490473  0.39008302  0.74113371     1.90100
O98         O  0.57577203  0.39590473  0.67388798    -0.73900
O99         O  0.56509653  0.44456033  0.70833308    -0.73700
O100        O  0.55797473  0.42239558  0.63560667    -0.79400
O101        O  0.53950241  0.44537377  0.74491020    -0.77600
O102        O  0.54672699  0.41194179  0.71657592    -1.13700
O103        O  0.51826844  0.41962913  0.77251467    -0.72900
C104        C  0.52450680  0.41027506  0.80480881     0.97800
C105        C  0.56737879  0.38126534  0.66750020     0.94200
Al106      Al  0.56790238  0.41930747  0.69413498     1.55600
O107        O  0.52054421  0.38533706  0.72192882    -0.77500
C108        C  0.55412645  0.45272472  0.73375805     0.98400
C109        C  0.58057637  0.40188986  0.77275630     0.93200
O110        O  0.56871651  0.38989057  0.76633168    -0.82900
O111        O  0.52875168  0.63392753  0.73222899    -0.82300
C112        C  0.53389336  0.60953473  0.91145173     0.97000
O113        O  0.52325593  0.60305915  0.88222322    -0.71400
O114        O  0.50291733  0.62833637  0.84702926    -0.75000
Al115      Al  0.51820096  0.61052601  0.82144833     1.49000
C116        C  0.49920071  0.64327604  0.82887043     0.92300
O117        O  0.54015478  0.66015565  0.83748047    -0.81200
O118        O  0.57091504  0.62159317  0.78630571    -0.74800
Al119      Al  0.53451660  0.64607009  0.78622616     1.90100
O120        O  0.56389540  0.64463035  0.85888033    -0.73900
O121        O  0.55665431  0.59418453  0.83209124    -0.73700
O122        O  0.54776975  0.61819300  0.90019946    -0.79400
O123        O  0.53089116  0.59094006  0.79668718    -0.77600
O124        O  0.53693648  0.62546548  0.81672620    -1.13700
O125        O  0.50928261  0.61483677  0.76139268    -0.72900
C126        C  0.51623305  0.62256077  0.72743502     0.97800
C127        C  0.55465653  0.65907346  0.85982700     0.94200
Al128      Al  0.55808253  0.62001583  0.84232641     1.55600
O129        O  0.50965482  0.65007486  0.79990541    -0.77500
C130        C  0.54587166  0.58456375  0.80908854     0.98400
C131        C  0.57121868  0.63570940  0.76238002     0.93200
O132        O  0.55875002  0.64723030  0.76503925    -0.82900
O133        O  0.45204091  0.39310703  0.16717718    -0.82300
C134        C  0.49356903  0.42157871  0.31235151     0.97000
O135        O  0.48889468  0.40536002  0.30644250    -0.71400
O136        O  0.45388062  0.40264654  0.29799391    -0.75000
Al137      Al  0.47335286  0.39386425  0.26343636     1.49000
C138        C  0.43816249  0.40555147  0.28294284     0.92300
O139        O  0.44988297  0.44017972  0.21771324    -0.81200
O140        O  0.49265944  0.42130524  0.15585845    -0.74800
Al141      Al  0.45205968  0.41647168  0.19391077     1.90100
O142        O  0.47805150  0.44829911  0.20828447    -0.73900
O143        O  0.50919994  0.40784718  0.22640512    -0.73700
O144        O  0.49218541  0.43287718  0.28049001    -0.79400
O145        O  0.49296459  0.38321193  0.23237426    -0.77600
O146        O  0.47224545  0.41227920  0.22518696    -1.13700
O147        O  0.45801505  0.37812394  0.22935520    -0.72900
C148        C  0.45258493  0.37838328  0.18873439     0.97800
C149        C  0.46187966  0.45223189  0.21750742     0.94200
Al150      Al  0.49140711  0.42647087  0.21815425     1.55600
O151        O  0.43581554  0.40899491  0.24129165    -0.77500
C152        C  0.50781988  0.39087836  0.22470546     0.98400
C153        C  0.48016997  0.42253183  0.12683678     0.93200
O154        O  0.46397737  0.42449241  0.13942923    -0.82900
O155        O  0.44590448  0.63934740  0.36797462    -0.82300
C156        C  0.49020100  0.61299071  0.22688277     0.97000
O157        O  0.48416745  0.62884866  0.23058377    -0.71400
O158        O  0.44903543  0.63212941  0.23689140    -0.75000
Al159      Al  0.46862008  0.64033822  0.27313248     1.49000
C160        C  0.43333537  0.62911426  0.25131869     0.92300
O161        O  0.44578931  0.59292274  0.31252737    -0.81200
O162        O  0.48646858  0.61252437  0.38313235    -0.74800
Al163      Al  0.44681034  0.61641050  0.33904456     1.90100
O164        O  0.47406631  0.58588148  0.32681516    -0.73900
O165        O  0.50441959  0.62698022  0.31721681    -0.73700
O166        O  0.48972656  0.60200443  0.25935403    -0.79400
O167        O  0.48820824  0.65112859  0.30411910    -0.77600
O168        O  0.46748548  0.62163148  0.31080519    -1.13700
O169        O  0.45348475  0.65572649  0.30878520    -0.72900
C170        C  0.44731973  0.65452292  0.34866078     0.97800
C171        C  0.45821370  0.58127299  0.31595408     0.94200
Al172      Al  0.48697427  0.60799560  0.32083941     1.55600
O173        O  0.43091435  0.62454744  0.29203496    -0.77500
C174        C  0.50286680  0.64388462  0.31564797     0.98400
C175        C  0.47342847  0.60944338  0.40916457     0.93200
O176        O  0.45767847  0.60739061  0.39363139    -0.82900
O177        O  0.37515982  0.71169523  0.91810555    -0.82300
C178        C  0.35339048  0.76164836  0.05218207     0.97000
O179        O  0.36936684  0.75689138  0.04341671    -0.71400
O180        O  0.37163388  0.72179983  0.04741088    -0.75000
Al181      Al  0.37878463  0.73888701  0.00356294     1.49000
C182        C  0.36733719  0.70559584  0.04010048     0.92300
O183        O  0.33004149  0.71367389  0.97743981    -0.81200
O184        O  0.34599347  0.75254201  0.89856955    -0.74800
Al185      Al  0.35301212  0.71417241  0.94922305     1.90100
O186        O  0.32208050  0.74162646  0.96367524    -0.73900
O187        O  0.36312359  0.77233779  0.95745424    -0.73700
O188        O  0.34082999  0.75886586  0.02415890    -0.79400
O189        O  0.38802370  0.75644486  0.96282238    -0.77600
O190        O  0.35862542  0.73587847  0.97136439    -1.13700
O191        O  0.39294999  0.72142860  0.97193660    -0.72900
C192        C  0.39060541  0.71263539  0.93578235     0.97800
C193        C  0.31823075  0.72586781  0.97642812     0.94200
Al194      Al  0.34416084  0.75473147  0.96162692     1.55600
O195        O  0.36182976  0.70084409  0.00116782    -0.77500
C196        C  0.38001449  0.77088882  0.95227497     0.98400
C197        C  0.34421381  0.73859305  0.87475401     0.93200
O198        O  0.34356329  0.72307119  0.89256912    -0.82900
O199        O  0.13017474  0.70811522  0.11089403    -0.82300
C200        C  0.15132065  0.75747312  0.97349256     0.97000
O201        O  0.13545219  0.75214231  0.98148150    -0.71400
O202        O  0.13568855  0.71700685  0.98084027    -0.75000
Al203      Al  0.12651585  0.73410185  0.02215533     1.49000
C204        C  0.14094547  0.70125681  0.99042351     0.92300
O205        O  0.17619136  0.71246251  0.05483931    -0.65200
O206        O  0.15677510  0.75099424  0.12957857    -0.74800
Al207      Al  0.15282447  0.71174535  0.08130643     1.90100
O208        O  0.18213429  0.74091425  0.06780143    -0.73900
O209        O  0.13918176  0.76898187  0.06675268    -0.73700
O210        O  0.16342384  0.75615121  0.00344098    -0.79400
O211        O  0.11537659  0.75152714  0.06031708    -0.77600
O212        O  0.14619054  0.73278783  0.05683422    -1.13700
O213        O  0.11296542  0.71616175  0.05382716    -0.72900
C214        C  0.11505460  0.70792167  0.09095952     0.97800
C215        C  0.18728415  0.72531348  0.05694250     0.94200
Al216      Al  0.15926947  0.75260316  0.06619601     1.55600
O217        O  0.14568093  0.69739382  0.03047946    -0.77500
C218        C  0.12236046  0.76650564  0.07059851     0.98400
C219        C  0.16028325  0.73741546  0.15387021     0.93200
O220        O  0.16129273  0.72180587  0.13699623    -0.82900
O221        O  0.37447293  0.79437700  0.55346003    -0.82300
C222        C  0.34661702  0.79815809  0.37517953     0.97000
O223        O  0.34197386  0.78711360  0.40562461    -0.71400
O224        O  0.37039967  0.76981598  0.43614441    -0.75000
Al225      Al  0.35150121  0.78248462  0.46498154     1.49000
C226        C  0.38615086  0.76789977  0.45185143     0.92300
O227        O  0.39829496  0.81112175  0.44832071    -0.81200
O228        O  0.35611184  0.83605241  0.49821991    -0.74800
Al229      Al  0.38514169  0.80268811  0.49905542     1.90100
O230        O  0.37947444  0.83239885  0.42697882    -0.73900
O231        O  0.33080304  0.81811542  0.45434491    -0.73700
O232        O  0.35516158  0.81229930  0.38519126    -0.79400
O233        O  0.33138577  0.79294073  0.49363330    -0.77600
O234        O  0.36427022  0.80275632  0.46910501    -1.13700
O235        O  0.35802472  0.77306588  0.52322984    -0.72900
C236        C  0.36534393  0.78016458  0.55757453     0.97800
C237        C  0.39512077  0.82551419  0.42692361     0.94200
Al238      Al  0.35604837  0.82298967  0.44321404     1.55600
O239        O  0.39225654  0.77871727  0.48133626    -0.77500
C240        C  0.32317758  0.80687102  0.48038751     0.98400
C241        C  0.36951581  0.83754638  0.52436639     0.93200
O242        O  0.38246122  0.82644308  0.52322394    -0.82900
O243        O  0.13913012  0.78945000  0.47414597    -0.82300
C244        C  0.16472832  0.79846015  0.65235727     0.97000
O245        O  0.16980185  0.78632591  0.62526378    -0.71400
O246        O  0.14238027  0.76784315  0.59486371    -0.75000
Al247      Al  0.16166213  0.77996763  0.56570873     1.49000
C248        C  0.12705535  0.76510332  0.57761563     0.92300
O249        O  0.11491015  0.80807127  0.57510137    -0.81200
O250        O  0.15651731  0.83238143  0.51896738    -0.74800
Al251      Al  0.12806996  0.79879543  0.52598308     1.90100
O252        O  0.13309898  0.83062555  0.59092391    -0.73900
O253        O  0.18195355  0.81637369  0.56834469    -0.73700
O254        O  0.15728000  0.81263532  0.63777831    -0.79400
O255        O  0.18241915  0.78944125  0.53803656    -0.77600
O256        O  0.14885897  0.80000316  0.55620450    -1.13700
O257        O  0.15629202  0.76931374  0.50792418    -0.72900
C258        C  0.14884342  0.77555828  0.47253469     0.97800
C259        C  0.11783613  0.82306932  0.59366489     0.94200
Al260      Al  0.15665302  0.82120133  0.57732167     1.55600
O261        O  0.12115384  0.77525959  0.54652770    -0.77500
C262        C  0.19026363  0.80399366  0.54761583     0.98400
C263        C  0.14288386  0.83300690  0.49314302     0.93200
O264        O  0.13008653  0.82191253  0.49774590    -0.82900
O265        O  0.05958690  0.39330745  0.85768585    -0.82300
C266        C  0.01259102  0.42229157  0.72385574     0.97000
O267        O  0.01840915  0.40630030  0.72589741    -0.71400
O268        O  0.05380917  0.40400675  0.72872567    -0.75000
Al269      Al  0.03523941  0.39445132  0.76546058     1.49000
C270        C  0.06966395  0.40716156  0.74219136     0.92300
O271        O  0.05829743  0.44108498  0.81244714    -0.81200
O272        O  0.01816925  0.41997427  0.87914397    -0.74800
Al273      Al  0.05763419  0.41697030  0.83364274     1.90100
O274        O  0.03008928  0.44802569  0.82579388    -0.73900
O275        O  0.00012509  0.40649639  0.81217315    -0.73700
O276        O  0.01403383  0.43285783  0.75692070    -0.79400
O277        O  0.01659779  0.38266015  0.79738761    -0.77600
O278        O  0.03673485  0.41237522  0.80548411    -1.13700
O279        O  0.05171317  0.37861475  0.79635988    -0.72900
C280        C  0.05904122  0.37886465  0.83519767     0.97800
C281        C  0.04595924  0.45271524  0.81540650     0.94200
Al282      Al  0.01729536  0.42573017  0.81760339     1.55600
O283        O  0.07264434  0.41091577  0.78335695    -0.77500
C284        C  0.00184952  0.38959413  0.80922708     0.98400
C285        C  0.03135413  0.42161779  0.90575097     0.93200
O286        O  0.04716424  0.42366800  0.89067874    -0.82900
O287        O  0.06117962  0.63996020  0.66880291    -0.82300
C288        C  0.01306208  0.61939359  0.80945608     0.97000
O289        O  0.01880071  0.63500622  0.80051575    -0.71400
O290        O  0.05417521  0.63677249  0.79830799    -0.75000
Al291      Al  0.03574498  0.64413215  0.75764743     1.49000
C292        C  0.06977584  0.63138145  0.78780179     0.92300
O293        O  0.05850736  0.59445708  0.72756368    -0.81200
O294        O  0.01839924  0.61189109  0.65508826    -0.74800
Al295      Al  0.05823280  0.61759957  0.69961023     1.90100
O296        O  0.03003491  0.58760155  0.71800598    -0.73900
O297        O  0.00053444  0.62962905  0.71635293    -0.73700
O298        O  0.01478330  0.60683291  0.78115081    -0.79400
O299        O  0.01733317  0.65390274  0.71989938    -0.77600
O300        O  0.03729928  0.62396515  0.72505745    -1.13700
O301        O  0.05223073  0.65790907  0.72300017    -0.72900
C302        C  0.06028900  0.65545749  0.68606547     0.97800
C303        C  0.04600478  0.58297091  0.72725349     0.94200
Al304      Al  0.01768293  0.61016548  0.71819496     1.55600
O305        O  0.07292797  0.62534692  0.74863413    -0.77500
C306        C  0.00253521  0.64638761  0.71048258     0.98400
C307        C  0.03167610  0.60918181  0.62955579     0.93200
O308        O  0.04764251  0.60871017  0.64474782    -0.82900
O309        O  0.98027166  0.39947614  0.23190022    -0.82300
C310        C  0.97061461  0.42561362  0.40829921     0.97000
O311        O  0.98200209  0.43186725  0.38061391    -0.71400
O312        O  0.00319675  0.40685398  0.34866270    -0.75000
Al313      Al  0.98825284  0.42443822  0.32049920     1.49000
C314        C  0.00667317  0.39121050  0.33480340     0.92300
O315        O  0.96489796  0.37496040  0.33645443    -0.81200
O316        O  0.93639349  0.41377951  0.27799782    -0.74800
Al317      Al  0.97244061  0.38847622  0.28564458     1.90100
O318        O  0.94076978  0.39094479  0.35145052    -0.73900
O319        O  0.94980766  0.44106760  0.32505059    -0.73700
O320        O  0.95684127  0.41718979  0.39499521    -0.79400
O321        O  0.97614757  0.44403619  0.29340198    -0.77600
O322        O  0.96954852  0.40948497  0.31383817    -1.13700
O323        O  0.99821269  0.41998887  0.26165531    -0.72900
C324        C  0.99259600  0.41103876  0.22799435     0.97800
C325        C  0.94942001  0.37620917  0.35363679     0.94200
Al326      Al  0.94783249  0.41535494  0.33567962     1.55600
O327        O  0.99660685  0.38401119  0.30537931    -0.77500
C328        C  0.96100334  0.45057780  0.30333861     0.98400
C329        C  0.93649294  0.39955060  0.25464934     0.93200
O330        O  0.94887005  0.38797194  0.25935598    -0.82900
O331        O  0.97804862  0.62924099  0.30848653    -0.82300
C332        C  0.97003075  0.60784025  0.12774603     0.97000
O333        O  0.98046600  0.60074068  0.15662350    -0.71400
O334        O  0.00203500  0.62515889  0.19081714    -0.75000
Al335      Al  0.98665570  0.60744907  0.21690516     1.49000
C336        C  0.00652300  0.63979389  0.20941036     0.92300
O337        O  0.96573574  0.65813688  0.20821787    -0.81200
O338        O  0.93458511  0.61941493  0.25569020    -0.74800
Al339      Al  0.97191423  0.64267362  0.25682136     1.90100
O340        O  0.94149342  0.64349888  0.18621406    -0.73900
O341        O  0.94773468  0.59243652  0.20726029    -0.73700
O342        O  0.95678266  0.61726683  0.14012999    -0.79400
O343        O  0.97360030  0.58819624  0.24216069    -0.77600
O344        O  0.96847171  0.62286855  0.22414467    -1.13700
O345        O  0.99679314  0.61060993  0.27596521    -0.72900
C346        C  0.99018395  0.61740094  0.31134948     0.97800
C347        C  0.95070662  0.65791324  0.18800875     0.94200
Al348      Al  0.94693544  0.61846914  0.19916828     1.55600
O349        O  0.99678165  0.64639771  0.24034829    -0.77500
C350        C  0.95820218  0.58258919  0.23079451     0.98400
C351        C  0.93518149  0.63254173  0.28276910     0.93200
O352        O  0.94809602  0.64364061  0.28114607    -0.82900
O353        O  0.56823883  0.14357278  0.16810552    -0.82300
C354        C  0.52444114  0.12079957  0.31546948     0.97000
O355        O  0.52903994  0.13685121  0.30634426    -0.71400
O356        O  0.56386662  0.14150143  0.29753051    -0.75000
Al357      Al  0.54389522  0.14730874  0.26000568     1.49000
C358        C  0.57934757  0.13638014  0.28559703     0.92300
O359        O  0.56752272  0.09811305  0.22812973    -0.81200
O360        O  0.52568353  0.11630604  0.15969479    -0.74800
Al361      Al  0.56631186  0.12126509  0.19980451     1.90100
O362        O  0.53928368  0.09079017  0.21694870    -0.73900
O363        O  0.50812085  0.13114724  0.22650693    -0.73700
O364        O  0.52530357  0.10852845  0.28587071    -0.79400
O365        O  0.52379786  0.15603024  0.22579409    -0.77600
O366        O  0.54567416  0.12719144  0.22771345    -1.13700
O367        O  0.55835244  0.16169507  0.22113877    -0.72900
C368        C  0.56625063  0.15923431  0.18388470     0.97800
C369        C  0.55526356  0.08636176  0.22660462     0.94200
Al370      Al  0.52635205  0.11286431  0.22260086     1.55600
O371        O  0.58204145  0.12963973  0.24695345    -0.77500
C372        C  0.50904131  0.14791367  0.22031758     0.98400
C373        C  0.53849364  0.11398903  0.13228980     0.93200
O374        O  0.55461683  0.11205834  0.14604291    -0.82900
O375        O  0.56229181  0.89762600  0.35707042    -0.82300
C376        C  0.51609354  0.91959446  0.21259676     0.97000
O377        O  0.52135244  0.90381134  0.22190844    -0.71400
O378        O  0.55674084  0.90187164  0.22623849    -0.75000
Al379      Al  0.53797635  0.89434180  0.26543004     1.49000
C380        C  0.57236422  0.90697562  0.23780142     0.92300
O381        O  0.56125147  0.94339414  0.29910373    -0.81200
O382        O  0.52015453  0.92605837  0.36800880    -0.74800
Al383      Al  0.56024849  0.92015630  0.32614572     1.90100
O384        O  0.53285304  0.95070521  0.30713476    -0.73900
O385        O  0.50268313  0.90919959  0.30375526    -0.73700
O386        O  0.51804619  0.93210163  0.24106890    -0.79400
O387        O  0.51899221  0.88455979  0.30141358    -0.77600
O388        O  0.53951253  0.91429291  0.29875933    -1.13700
O389        O  0.55422620  0.88025191  0.30072012    -0.72900
C390        C  0.56174278  0.88228663  0.33877729     0.97800
C391        C  0.54902559  0.95518079  0.30018288     0.94200
Al392      Al  0.52011960  0.92835472  0.30451156     1.55600
O393        O  0.57545672  0.91230115  0.27781159    -0.77500
C394        C  0.50406226  0.89230517  0.30827178     0.98400
C395        C  0.53322734  0.92855932  0.39482666     0.93200
O396        O  0.54918775  0.92915383  0.38005347    -0.82900
O397        O  0.48242539  0.13659566  0.81015347    -0.82300
C398        C  0.47523395  0.11461544  0.62890800     0.97000
O399        O  0.48694210  0.10893754  0.65669108    -0.71400
O400        O  0.50606944  0.13484224  0.69206588    -0.75000
Al401      Al  0.49260962  0.11551042  0.71744122     1.49000
C402        C  0.50892773  0.14977718  0.71099629     0.92300
O403        O  0.46627678  0.16365469  0.70936913    -0.81200
O404        O  0.43965628  0.12209951  0.75974358    -0.74800
Al405      Al  0.47439357  0.14909237  0.75826581     1.90100
O406        O  0.44347774  0.14645003  0.68918881    -0.73900
O407        O  0.45507983  0.09664787  0.71083714    -0.73700
O408        O  0.46082058  0.12177847  0.64259513    -0.79400
O409        O  0.48194843  0.09456354  0.74133630    -0.77600
O410        O  0.47285706  0.12889013  0.72595933    -1.13700
O411        O  0.50243739  0.11919973  0.77703786    -0.72900
C412        C  0.49546626  0.12571383  0.81248123     0.97800
C413        C  0.45124125  0.16167976  0.68970775     0.94200
Al414      Al  0.45158400  0.12223294  0.70238506     1.55600
O415        O  0.49843054  0.15539278  0.74136006    -0.77500
C416        C  0.46694847  0.08757208  0.73187820     0.98400
C417        C  0.43924999  0.13533775  0.78649018     0.93200
O418        O  0.45088349  0.14769358  0.78347981    -0.82900
O419        O  0.48130250  0.90331585  0.71863430    -0.82300
C420        C  0.46967322  0.92863835  0.89569880     0.97000
O421        O  0.48168260  0.93397192  0.86856887    -0.71400
O422        O  0.50212047  0.90846982  0.83741592    -0.75000
Al423      Al  0.48847456  0.92678387  0.80912296     1.49000
C424        C  0.50498368  0.89277333  0.82310517     0.92300
O425        O  0.46157156  0.87807046  0.81769257    -0.81200
O426        O  0.43676606  0.91950960  0.76208126    -0.74800
Al427      Al  0.47141369  0.89206538  0.76989091     1.90100
O428        O  0.43872836  0.89569342  0.83330145    -0.73900
O429        O  0.45100590  0.94514001  0.81295483    -0.73700
O430        O  0.45589911  0.92034908  0.88136740    -0.79400
O431        O  0.47763560  0.94705051  0.78198486    -0.77600
O432        O  0.46917563  0.91278211  0.79991508    -1.13700
O433        O  0.49943053  0.92252253  0.75161259    -0.72900
C434        C  0.49397342  0.91456837  0.71641320     0.97800
C435        C  0.44616802  0.88036512  0.83467929     0.94200
Al436      Al  0.44750170  0.91960208  0.82071136     1.55600
O437        O  0.49478318  0.88582782  0.79350311    -0.77500
C438        C  0.46292891  0.95428255  0.79289598     0.98400
C439        C  0.43720171  0.90647243  0.73467505     0.93200
O440        O  0.44869627  0.89396081  0.73910373    -0.82900
O441        O  0.87552065  0.82640452  0.11835938    -0.82300
C442        C  0.85650968  0.77846287  0.97566211     0.97000
O443        O  0.87210765  0.78447047  0.98456441    -0.71400
O444        O  0.87343061  0.81948471  0.98884094    -0.75000
Al445      Al  0.88107345  0.80108002  0.02867291     1.49000
C446        C  0.86762893  0.83491207  0.99914129     0.92300
O447        O  0.83030909  0.82179407  0.05657775    -0.81200
O448        O  0.85039950  0.78274770  0.13083351    -0.74800
Al449      Al  0.85337892  0.82259509  0.08603587     1.90100
O450        O  0.82466195  0.79329373  0.06912852    -0.73900
O451        O  0.86755869  0.76525458  0.06792895    -0.73700
O452        O  0.84413080  0.77913510  0.00476075    -0.79400
O453        O  0.89140866  0.78246671  0.06456940    -0.77600
O454        O  0.86080109  0.80192722  0.06082067    -1.13700
O455        O  0.89435908  0.81750681  0.06571095    -0.72900
C456        C  0.89136017  0.82539200  0.10281405     0.97800
C457        C  0.81935170  0.80878553  0.05747283     0.94200
Al458      Al  0.84777366  0.78187145  0.06772509     1.55600
O459        O  0.86103173  0.83776830  0.03775446    -0.77500
C460        C  0.88438031  0.76732731  0.07216231     0.98400
C461        C  0.84677582  0.79591195  0.15612829     0.93200
O462        O  0.84440719  0.81158276  0.14024825    -0.82900
O463        O  0.63018029  0.82652779  0.91479531    -0.82300
C464        C  0.65213760  0.77869061  0.05440568     0.97000
O465        O  0.63640064  0.78454541  0.04728061    -0.71400
O466        O  0.63747432  0.81941037  0.04544524    -0.75000
Al467      Al  0.62728705  0.80217260  0.00637755     1.49000
C468        C  0.64186001  0.83523359  0.03453102     0.92300
O469        O  0.67663522  0.82256424  0.96995249    -0.81200
O470        O  0.65574035  0.78358928  0.89788216    -0.74800
Al471      Al  0.65302859  0.82332836  0.94373503     1.90100
O472        O  0.68205978  0.79385854  0.95841067    -0.73900
O473        O  0.63844981  0.76664812  0.96157793    -0.73700
O474        O  0.66376730  0.77925925  0.02351723    -0.79400
O475        O  0.61511243  0.78454554  0.97136210    -0.77600
O476        O  0.64638790  0.80265162  0.97003119    -1.13700
O477        O  0.61367414  0.81993716  0.97416911    -0.72900
C478        C  0.61528728  0.82697229  0.93539756     0.97800
C479        C  0.68745149  0.80940575  0.96936759     0.94200
Al480      Al  0.65895708  0.78251845  0.96097425     1.55600
O481        O  0.64619495  0.83871375  0.99392458    -0.77500
C482        C  0.62159204  0.76940963  0.96078742     0.98400
C483        C  0.65907227  0.79670727  0.87213637     0.93200
O484        O  0.66090448  0.81248092  0.88781801    -0.82900
O485        O  0.86541824  0.74573732  0.47654834    -0.82300
C486        C  0.84606571  0.73398311  0.65770731     0.97000
O487        O  0.83976287  0.74602087  0.63187041    -0.71400
O488        O  0.86471250  0.76643562  0.59748130    -0.75000
Al489      Al  0.84539125  0.75316864  0.57173050     1.49000
C490        C  0.87978149  0.76966249  0.57961556     0.92300
O491        O  0.89462927  0.72753134  0.57123303    -0.81200
O492        O  0.85253246  0.70144852  0.52279165    -0.74800
Al493      Al  0.87890207  0.73669131  0.52556376     1.90100
O494        O  0.87798535  0.70434915  0.59057105    -0.73900
O495        O  0.82762470  0.71515231  0.57592292    -0.73700
O496        O  0.85399545  0.72036575  0.64182151    -0.79400
O497        O  0.82426662  0.74239541  0.54794798    -0.77600
O498        O  0.85922547  0.73401951  0.55947230    -1.13700
O499        O  0.84806598  0.76457510  0.51380159    -0.72900
C500        C  0.85429139  0.75855632  0.47707362     0.97800
C501        C  0.89314602  0.71218249  0.58939147     0.94200
Al502      Al  0.85347406  0.71222118  0.58109695     1.55600
O503        O  0.88518394  0.76036826  0.54651518    -0.77500
C504        C  0.81788073  0.72712081  0.55743929     0.98400
C505        C  0.86508123  0.70189826  0.49415314     0.93200
O506        O  0.87718700  0.71384875  0.49647729    -0.82900
O507        O  0.63331603  0.74249256  0.54658055    -0.82300
C508        C  0.66204433  0.73414904  0.37181013     0.97000
O509        O  0.66669527  0.74613185  0.39990636    -0.71400
O510        O  0.64063589  0.76630800  0.43013162    -0.75000
Al511      Al  0.65857584  0.75194377  0.45937940     1.49000
C512        C  0.62522336  0.76971181  0.44567530     0.92300
O513        O  0.61036226  0.72716121  0.43874919    -0.81200
O514        O  0.64895547  0.69953752  0.50144946    -0.74800
Al515      Al  0.62290535  0.73480942  0.49142378     1.90100
O516        O  0.62744839  0.70359855  0.42528845    -0.73900
O517        O  0.67665168  0.71389855  0.45673325    -0.73700
O518        O  0.65404172  0.72004346  0.38452149    -0.79400
O519        O  0.67867194  0.74069652  0.48707462    -0.77600
O520        O  0.64436478  0.73265269  0.46489885    -1.13700
O521        O  0.65308144  0.76149639  0.51834486    -0.72900
C522        C  0.64417074  0.75543536  0.55167514     0.97800
C523        C  0.61260258  0.71192896  0.42054764     0.94200
Al524      Al  0.65128915  0.71112559  0.44378901     1.55600
O525        O  0.61799852  0.75905722  0.47345172    -0.77500
C526        C  0.68574854  0.72579770  0.47710864     0.98400
C527        C  0.63414510  0.69912172  0.52250287     0.93200
O528        O  0.62241343  0.71120529  0.51623071    -0.82900
O529        O  0.38128573  0.33066758  0.61385401    -0.82300
C530        C  0.35495134  0.28095802  0.48170520     0.97000
O531        O  0.37109629  0.28577366  0.48827419    -0.71400
O532        O  0.37280974  0.32099359  0.48600233    -0.75000
Al533      Al  0.38158900  0.30355742  0.52705166     1.49000
C534        C  0.36797573  0.33689452  0.49500399     0.92300
O535        O  0.33354172  0.32764737  0.56559212    -0.81200
O536        O  0.35239328  0.28805477  0.63681524    -0.74800
Al537      Al  0.35762792  0.32739110  0.58828309     1.90100
O538        O  0.32648269  0.29947044  0.57830222    -0.73900
O539        O  0.36802824  0.26936542  0.57296356    -0.73700
O540        O  0.34320476  0.28340192  0.51179964    -0.79400
O541        O  0.39238472  0.28589601  0.56491364    -0.77600
O542        O  0.36265191  0.30600048  0.56344982    -1.13700
O543        O  0.39660099  0.32071575  0.55612006    -0.72900
C544        C  0.39588673  0.32980916  0.59200411     0.97800
C545        C  0.32190716  0.31535980  0.56859912     0.94200
Al546      Al  0.34872258  0.28677749  0.57414239     1.55600
O547        O  0.36369218  0.34121433  0.53514570    -0.77500
C548        C  0.38498905  0.27119692  0.57561523     0.98400
C549        C  0.35070478  0.30155628  0.66227602     0.93200
O550        O  0.35057849  0.31746013  0.64634882    -0.82900
O551        O  0.13278038  0.32577535  0.42556273    -0.82300
C552        C  0.15809654  0.27819337  0.56212083     0.97000
O553        O  0.14180154  0.28227643  0.55441374    -0.71400
O554        O  0.13880318  0.31716617  0.55507436    -0.75000
Al555      Al  0.13113895  0.29936344  0.51381711     1.49000
C556        C  0.14247355  0.33333744  0.54573809     0.92300
O557        O  0.17929177  0.32427916  0.48211710    -0.81200
O558        O  0.16131389  0.28476043  0.40596743    -0.74800
Al559      Al  0.15567841  0.32365281  0.45512058     1.90100
O560        O  0.18677584  0.29663563  0.46556677    -0.73900
O561        O  0.14616777  0.26533169  0.46958022    -0.73700
O562        O  0.16988393  0.28031219  0.53183447    -0.79400
O563        O  0.12128758  0.28101326  0.47626650    -0.77600
O564        O  0.15049353  0.30217379  0.47912379    -1.13700
O565        O  0.11613336  0.31601238  0.48157074    -0.72900
C566        C  0.11751519  0.32411473  0.44408900     0.97800
C567        C  0.19126696  0.31228642  0.47788917     0.94200
Al568      Al  0.16484004  0.28334839  0.46906847     1.55600
O569        O  0.14746528  0.33758718  0.50614405    -0.77500
C570        C  0.12917083  0.26645957  0.46656110     0.98400
C571        C  0.16386156  0.29847036  0.38144496     0.93200
O572        O  0.16456575  0.31411844  0.39860173    -0.82900
O573        O  0.37144969  0.24267481  0.98242154    -0.82300
C574        C  0.34965820  0.23650277  0.16461171     0.97000
O575        O  0.34329079  0.24746247  0.13592071    -0.71400
O576        O  0.36868431  0.26664535  0.09903588    -0.75000
Al577      Al  0.34989285  0.25251161  0.07455682     1.49000
C578        C  0.38387152  0.26952192  0.08157321     0.92300
O579        O  0.39898928  0.22676441  0.08300172    -0.81200
O580        O  0.35727855  0.19954303  0.03744061    -0.74800
Al581      Al  0.38394483  0.23468336  0.03474169     1.90100
O582        O  0.38207714  0.20445459  0.10649136    -0.73900
O583        O  0.33183818  0.21512660  0.08623173    -0.73700
O584        O  0.35757835  0.22229434  0.15242730    -0.79400
O585        O  0.32953747  0.24092778  0.05049208    -0.77600
O586        O  0.36385995  0.23311692  0.06765991    -1.13700
O587        O  0.35341109  0.26193810  0.01501206    -0.72900
C588        C  0.36071781  0.25583162  0.97971167     0.97800
C589        C  0.39726894  0.21227798  0.10498025     0.94200
Al590      Al  0.35768045  0.21215584  0.09356442     1.55600
O591        O  0.39003311  0.25882575  0.05213993    -0.77500
C592        C  0.32274213  0.22620045  0.06270258     0.98400
C593        C  0.37007137  0.19914148  0.00939043     0.93200
O594        O  0.38226421  0.21103530  0.00984146    -0.82900
O595        O  0.13908363  0.24723239  0.05712205    -0.82300
C596        C  0.16788946  0.23717793  0.88177749     0.97000
O597        O  0.17256491  0.24892107  0.91046264    -0.71400
O598        O  0.14489342  0.26821245  0.93633014    -0.75000
Al599      Al  0.16317730  0.25553706  0.96850462     1.49000
C600        C  0.12888961  0.27077299  0.94934602     0.92300
O601        O  0.11523604  0.22832738  0.95496533    -0.81200
O602        O  0.15579141  0.20318155  0.01112081    -0.74800
Al603      Al  0.12847369  0.23776273  0.00415203     1.90100
O604        O  0.13321765  0.20597513  0.93748395    -0.73900
O605        O  0.18228013  0.21866707  0.96644629    -0.73700
O606        O  0.15888717  0.22361419  0.89407765    -0.79400
O607        O  0.18281748  0.24499237  0.99989824    -0.77600
O608        O  0.14949119  0.23596674  0.97555552    -1.13700
O609        O  0.15701424  0.26680669  0.02502254    -0.72900
C610        C  0.14901952  0.26091710  0.05977615     0.97800
C611        C  0.11780166  0.21333613  0.93609914     0.94200
Al612      Al  0.15694036  0.21470443  0.95396557     1.55600
O613        O  0.12233464  0.26121496  0.98079780    -0.77500
C614        C  0.19038311  0.23021131  0.99071495     0.98400
C615        C  0.14234350  0.20315062  0.03707010     0.93200
O616        O  0.13003134  0.21485028  0.03340695    -0.82900
O617        O  0.94941431  0.13747737  0.86329313    -0.82300
C618        C  0.99953927  0.11591001  0.72799471     0.97000
O619        O  0.99468414  0.13179246  0.73760838    -0.71400
O620        O  0.95952091  0.13436901  0.73484200    -0.75000
Al621      Al  0.97701163  0.14123392  0.77825352     1.49000
C622        C  0.94348456  0.12943249  0.74226983     0.92300
O623        O  0.95257816  0.09187595  0.80508608    -0.81200
O624        O  0.99162104  0.10927938  0.88187536    -0.74800
Al625      Al  0.95269815  0.11509539  0.83267660     1.90100
O626        O  0.98055396  0.08450008  0.81970290    -0.73900
O627        O  0.01108025  0.12562443  0.82091620    -0.73700
O628        O  0.99690228  0.10315208  0.75563421    -0.79400
O629        O  0.99490527  0.15025756  0.81877689    -0.77600
O630        O  0.97423057  0.12102587  0.80995343    -1.13700
O631        O  0.95986841  0.15539828  0.81071023    -0.72900
C632        C  0.95067058  0.15298818  0.84606605     0.97800
C633        C  0.96482432  0.08012779  0.80767610     0.94200
Al634      Al  0.99334523  0.10677205  0.81888565     1.55600
O635        O  0.93914647  0.12333986  0.78083652    -0.77500
C636        C  0.00960364  0.14234885  0.82777748     0.98400
C637        C  0.97791653  0.10727111  0.90655971     0.93200
O638        O  0.96222624  0.10609114  0.88946657    -0.82900
O639        O  0.94968763  0.89165161  0.67459284    -0.82300
C640        C  0.99859952  0.91763771  0.80661951     0.97000
O641        O  0.99416697  0.90125793  0.80148684    -0.71400
O642        O  0.95935816  0.89694220  0.80333741    -0.75000
Al643      Al  0.97703952  0.88977249  0.76149498     1.49000
C644        C  0.94319034  0.90076878  0.79463582     0.92300
O645        O  0.95189759  0.93744468  0.73134489    -0.81200
O646        O  0.99009499  0.91847387  0.65119615    -0.74800
Al647      Al  0.95209639  0.91426534  0.70393397     1.90100
O648        O  0.97898989  0.94524411  0.70931183    -0.73900
O649        O  0.01075008  0.90476210  0.71511468    -0.73700
O650        O  0.99658386  0.92900727  0.77515595    -0.79400
O651        O  0.99509928  0.88000625  0.72368670    -0.77600
O652        O  0.97383872  0.90902418  0.72650173    -1.13700
O653        O  0.96038397  0.87452840  0.72922536    -0.72900
C654        C  0.95167861  0.87628905  0.69244535     0.97800
C655        C  0.96360274  0.94944324  0.72435234     0.94200
Al656      Al  0.99254654  0.92321966  0.71361432     1.55600
O657        O  0.93876482  0.90600867  0.75531323    -0.77500
C658        C  0.00954549  0.88781411  0.71329161     0.98400
C659        C  0.97597712  0.92099623  0.62794433     0.93200
O660        O  0.96082374  0.92341993  0.64669568    -0.82900
O661        O  0.02776469  0.13132469  0.22791045    -0.82300
C662        C  0.04162648  0.10974650  0.40863973     0.97000
O663        O  0.02891209  0.10457210  0.38328027    -0.71400
O664        O  0.00782736  0.12963277  0.35051936    -0.75000
Al665      Al  0.02126516  0.11065649  0.32346942     1.49000
C666        C  0.00391557  0.14441915  0.33179616     0.92300
O667        O  0.04546232  0.16016659  0.32422153    -0.81200
O668        O  0.07283588  0.12009726  0.27189151    -0.74800
Al669      Al  0.03660713  0.14474359  0.27763328     1.90100
O670        O  0.06915145  0.14394979  0.34316839    -0.73900
O671        O  0.06005694  0.09363607  0.32169182    -0.73700
O672        O  0.05500927  0.11792706  0.39225516    -0.79400
O673        O  0.03220244  0.08998058  0.29833826    -0.77600
O674        O  0.04009779  0.12486198  0.31075235    -1.13700
O675        O  0.00941598  0.11356032  0.26570963    -0.72900
C676        C  0.01508172  0.12001324  0.22872699     0.97800
C677        C  0.06086829  0.15893372  0.34262504     0.94200
Al678      Al  0.06229697  0.11933147  0.33070937     1.55600
O679        O  0.01283921  0.14997536  0.29833074    -0.77500
C680        C  0.04792539  0.08384830  0.30407555     0.98400
C681        C  0.07172832  0.13317490  0.24469169     0.93200
O682        O  0.05929465  0.14461360  0.24841306    -0.82900
O683        O  0.02740439  0.90473110  0.30940020    -0.82300
C684        C  0.03927444  0.92411511  0.12741712     0.97000
O685        O  0.02809663  0.93158376  0.15364160    -0.71400
O686        O  0.00652563  0.90723830  0.18846284    -0.75000
Al687      Al  0.02096443  0.92582389  0.21428988     1.49000
C688        C  0.00285207  0.89219015  0.20615599     0.92300
O689        O  0.04512054  0.87573570  0.21422914    -0.81200
O690        O  0.07271656  0.91697471  0.26147725    -0.74800
Al691      Al  0.03644117  0.89153950  0.25979571     1.90100
O692        O  0.06878920  0.89151254  0.19438448    -0.73900
O693        O  0.05925546  0.94228086  0.20705054    -0.73700
O694        O  0.05272744  0.91570710  0.14303348    -0.79400
O695        O  0.03290678  0.94612972  0.23908491    -0.77600
O696        O  0.03960585  0.91118704  0.22592010    -1.13700
O697        O  0.00962823  0.92324471  0.27205225    -0.72900
C698        C  0.01455992  0.91582916  0.30855486     0.97800
C699        C  0.06038735  0.87667344  0.19570156     0.94200
Al700      Al  0.06146027  0.91623717  0.20332395     1.55600
O701        O  0.01261631  0.88604793  0.23792894    -0.77500
C702        C  0.04812989  0.95220148  0.22787857     0.98400
C703        C  0.07191846  0.90454767  0.29074530     0.93200
O704        O  0.05950416  0.89284770  0.28925221    -0.82900
C705        C  0.05077095  0.99758691  0.28733987    -0.11900
C706        C  0.05687327  0.00886358  0.25234033     0.14600
C707        C  0.06198130  0.00103129  0.21051937     0.01500
C708        C  0.05963789  0.98240438  0.20375913    -0.16300
C709        C  0.05253764  0.97131667  0.23806626    -0.11100
C710        C  0.04864532  0.97896738  0.28078867     0.08300
C711        C  0.05638660  0.02870361  0.26041650     0.09300
S712        S  0.07122622  0.01404594  0.16434623    -0.25400
H713        H  0.06289789  0.97661270  0.17104350     0.19600
S714        S  0.04131166  0.96502603  0.32752480    -0.31100
H715        H  0.04717451  0.00354426  0.31960666     0.09900
C716        C  0.04308800  0.03970532  0.23998788     0.03100
C717        C  0.04099287  0.05760896  0.25446986    -0.13400
C718        C  0.05185410  0.06500962  0.28911544    -0.09100
C719        C  0.06556339  0.05404309  0.30856845     0.06500
C720        C  0.06769615  0.03615374  0.29387487    -0.14100
S721        S  0.02788308  0.03069770  0.19756031    -0.31100
H722        H  0.03045652  0.06578208  0.23931090     0.10800
S723        S  0.07993178  0.06143631  0.35439708    -0.28200
H724        H  0.07775993  0.02767718  0.31013511     0.08000
H725        H  0.04018722  0.97879595  0.36017435     0.26400
H726        H  0.01912846  0.04701424  0.18678063     0.21200
H727        H  0.06577208  0.06906506  0.37958120     0.26500
H728        H  0.07816509  0.02809850  0.19119983     0.15400
C729        C  0.03485424  0.91193590  0.00279574    -0.11900
C730        C  0.02770504  0.92798414  0.98486783     0.14600
C731        C  0.02535860  0.94299722  0.01361699     0.01500
C732        C  0.02942722  0.94139055  0.05982936    -0.16300
C733        C  0.03623746  0.92522332  0.07802006    -0.11100
C734        C  0.03908302  0.91033638  0.04892434     0.08300
C735        C  0.02084477  0.92783436  0.93761694     0.09300
S736        S  0.01716241  0.96449419  0.99340759    -0.25400
H737        H  0.02730855  0.95290452  0.08180705     0.19600
S738        S  0.04685784  0.88856921  0.06856761    -0.31100
H739        H  0.03636843  0.90027180  0.98099558     0.09900
C740        C  0.03235395  0.92472315  0.90042277     0.03100
C741        C  0.02482475  0.92250144  0.85704567    -0.13400
C742        C  0.00611080  0.92337155  0.85032159    -0.09100
C743        C  0.99476855  0.92790818  0.88681171     0.06500
C744        C  0.00218949  0.92971367  0.93024090    -0.14100
S745        S  0.05654757  0.92354920  0.90817966    -0.31100
H746        H  0.03345959  0.91974969  0.82845366     0.10800
S747        S  0.97076537  0.93131580  0.88018990    -0.28200
H748        H  0.99332446  0.93232472  0.95867117     0.08000
H749        H  0.03720783  0.88864514  0.10954633     0.26400
H750        H  0.06087515  0.91997265  0.86261903     0.21200
H751        H  0.97117961  0.93684713  0.83454649     0.26500
H752        H  0.02385594  0.96274524  0.94902517     0.15400
C753        C  0.98927310  0.90796138  0.50937138    -0.11900
C754        C  0.98433277  0.92342850  0.48501243     0.14600
C755        C  0.97491464  0.93746724  0.50696477     0.01500
C756        C  0.97148891  0.93604198  0.55356794    -0.16300
C757        C  0.97734054  0.92093306  0.57833780    -0.11100
C758        C  0.98573032  0.90648264  0.55558417     0.08300
C759        C  0.99059074  0.92463983  0.43781349     0.09300
S760        S  0.96778020  0.95780714  0.47830626    -0.25400
H761        H  0.96483696  0.94705963  0.57085361     0.19600
S762        S  0.99226777  0.88580611  0.58349132    -0.31100
H763        H  0.99629220  0.89708167  0.49231206     0.09900
C764        C  0.00774669  0.93177916  0.42793463     0.03100
C765        C  0.01499096  0.92930310  0.38462137    -0.13400
C766        C  0.00527073  0.92013317  0.35094664    -0.09100
C767        C  0.98774641  0.91365070  0.36035582     0.06500
C768        C  0.98066867  0.91582091  0.40390656    -0.14100
S769        S  0.02090063  0.94292787  0.47138652    -0.31100
H770        H  0.02853015  0.93389819  0.37741171     0.10800
S771        S  0.97467381  0.90067222  0.32028168    -0.28200
H772        H  0.96765621  0.90997566  0.41200900     0.08000
H773        H  0.97861378  0.88608399  0.61647363     0.26400
H774        H  0.03548224  0.94782346  0.44348368     0.21200
H775        H  0.97915348  0.91095149  0.28193550     0.26500
H776        H  0.96800611  0.95097457  0.43389403     0.15400
C777        C  0.97482830  0.09700619  0.03306917    -0.11900
C778        C  0.98728833  0.10959333  0.05008283     0.14600
C779        C  0.99610372  0.12143812  0.01996117     0.01500
C780        C  0.99268500  0.12017183  0.97360020    -0.16300
C781        C  0.98053607  0.10741125  0.95613529    -0.11100
C782        C  0.97142194  0.09572070  0.98626709     0.08300
C783        C  0.99232553  0.10926295  0.09854584     0.09300
S784        S  0.01221981  0.13821384  0.03835758    -0.25400
H785        H  0.99941655  0.12948722  0.95090833     0.19600
S786        S  0.95618835  0.07834921  0.96705661    -0.31100
H787        H  0.96822431  0.08776317  0.05618609     0.09900
C788        C  0.98220297  0.11858881  0.13135805     0.03100
C789        C  0.98953361  0.12104495  0.17492862    -0.13400
C790        C  0.00676926  0.11439961  0.18581673    -0.09100
C791        C  0.01629515  0.10393929  0.15377989     0.06500
C792        C  0.00893732  0.10152581  0.11051915    -0.14100
S793        S  0.96075370  0.12863410  0.11651544    -0.31100
H794        H  0.98230539  0.12898395  0.19977950     0.10800
S795        S  0.03797650  0.09353398  0.16478951    -0.28200
H796        H  0.01660410  0.09423494  0.08520355     0.08000
H797        H  0.96576601  0.07432872  0.92717894     0.26400
H798        H  0.95647494  0.13480326  0.16030639     0.21200
H799        H  0.03955745  0.09746747  0.21110235     0.26500
H800        H  0.00421882  0.14172346  0.08057895     0.15400
C801        C  0.02565708  0.09329041  0.52377324    -0.11900
C802        C  0.03211733  0.10709873  0.55177339     0.14600
C803        C  0.04408757  0.12007070  0.53382044     0.01500
C804        C  0.04787008  0.11999557  0.48731955    -0.16300
C805        C  0.04021679  0.10701080  0.45834313    -0.11100
C806        C  0.02979788  0.09290947  0.47752658     0.08300
C807        C  0.02395188  0.10918642  0.59711458     0.09300
S808        S  0.05392770  0.13774393  0.56790482    -0.25400
H809        H  0.05612684  0.13072127  0.47338474     0.19600
S810        S  0.02117312  0.07417216  0.44507112    -0.31100
H811        H  0.01673321  0.08311399  0.53772838     0.09900
C812        C  0.01024836  0.12204270  0.60412782     0.03100
C813        C  0.00246612  0.12364278  0.64703250    -0.13400
C814        C  0.00816197  0.11279536  0.68353004    -0.09100
C815        C  0.02203854  0.09997144  0.67648245     0.06500
C816        C  0.02952831  0.09806224  0.63310374    -0.14100
S817        S  0.00238169  0.13622807  0.55815015    -0.31100
H818        H  0.99175799  0.13338707  0.65214958     0.10800
S819        S  0.03150113  0.08650188  0.72167086    -0.28200
H820        H  0.04013512  0.08822654  0.62762890     0.08000
H821        H  0.03602661  0.07327070  0.41557713     0.26400
H822        H  0.99018914  0.14662108  0.58361858     0.21200
H823        H  0.03180421  0.10067467  0.75338837     0.26500
H824        H  0.05308785  0.12847290  0.60951002     0.15400
C825        C  0.96441037  0.00053473  0.72096080    -0.11900
C826        C  0.95612418  0.00480711  0.76227013     0.14600
C827        C  0.94844498  0.99081425  0.78858443     0.01500
C828        C  0.95042790  0.97285207  0.77458563    -0.16300
C829        C  0.95957951  0.96855186  0.73436104    -0.11100
C830        C  0.96596220  0.98267582  0.70643480     0.08300
C831        C  0.95679891  0.02386324  0.77746840     0.09300
S832        S  0.93637994  0.99488835  0.84066137    -0.25400
H833        H  0.94526641  0.96212455  0.79597228     0.19600
S834        S  0.97588640  0.97881706  0.65152317    -0.31100
H835        H  0.96996166  0.01123058  0.70009799     0.09900
C836        C  0.96828244  0.02928934  0.81322967     0.03100
C837        C  0.97010841  0.04769799  0.82311147    -0.13400
C838        C  0.96108935  0.06093094  0.79730910    -0.09100
C839        C  0.94969276  0.05542618  0.76124807     0.06500
C840        C  0.94747218  0.03700267  0.75223389    -0.14100
S841        S  0.98150594  0.01291019  0.84452605    -0.31100
H842        H  0.97891620  0.05186015  0.85059974     0.10800
S843        S  0.93886136  0.07112280  0.72306576    -0.28200
H844        H  0.93902899  0.03287677  0.72395981     0.08000
H845        H  0.96482043  0.96397155  0.64110377     0.26400
H846        H  0.99118496  0.02528845  0.87135501     0.21200
H847        H  0.95364774  0.08300347  0.72058228     0.26500
H848        H  0.93147715  0.01281303  0.83108412     0.15400
C849        C  0.13037637  0.17904488  0.14489139    -0.11900
C850        C  0.12526372  0.16219539  0.12739835     0.14600
C851        C  0.12904426  0.15803753  0.08166273     0.01500
C852        C  0.13647124  0.17128272  0.05356584    -0.16300
C853        C  0.14004137  0.18861381  0.07020434    -0.11100
C854        C  0.13775334  0.19229351  0.11672711     0.08300
C855        C  0.11250979  0.15126619  0.15424629     0.09300
S856        S  0.12316180  0.13668454  0.05636224    -0.25400
H857        H  0.13815830  0.16848113  0.01772038     0.19600
S858        S  0.14286129  0.21399991  0.14120361    -0.31100
H859        H  0.12740638  0.18234114  0.17990612     0.09900
C860        C  0.11741012  0.14297416  0.19556125     0.03100
C861        C  0.10390503  0.13539561  0.22300343    -0.13400
C862        C  0.08564146  0.13629564  0.20998086    -0.09100
C863        C  0.08104756  0.14354985  0.16702509     0.06500
C864        C  0.09446850  0.15099542  0.13989792    -0.14100
S865        S  0.14067378  0.14278390  0.21410115    -0.31100
H866        H  0.10741451  0.12999191  0.25605687     0.10800
S867        S  0.05824390  0.14436924  0.14543529    -0.28200
H868        H  0.09070813  0.15731946  0.10801605     0.08000
H869        H  0.15605903  0.21884507  0.10920037     0.26400
H870        H  0.13808408  0.13167341  0.25229001     0.21200
H871        H  0.05295289  0.12849822  0.16746898     0.26500
H872        H  0.12359574  0.12668928  0.09697635     0.15400
C873        C  0.08813699  0.18170664  0.86584509    -0.11900
C874        C  0.07129597  0.18446792  0.88636692     0.14600
C875        C  0.06986876  0.19688247  0.92241441     0.01500
C876        C  0.08509261  0.20661847  0.93607082    -0.16300
C877        C  0.10206011  0.20385166  0.91589591    -0.11100
C878        C  0.10347241  0.19127627  0.87999903     0.08300
C879        C  0.05558421  0.17390100  0.87021679     0.09300
S880        S  0.04923103  0.20048054  0.95357810    -0.25400
H881        H  0.08378645  0.21591882  0.96422694     0.19600
S882        S  0.12416542  0.18729574  0.84978098    -0.31100
H883        H  0.08928221  0.17214389  0.83820349     0.09900
C884        C  0.04089545  0.18204315  0.84751289     0.03100
C885        C  0.02596188  0.17149071  0.83498530    -0.13400
C886        C  0.02541656  0.15286659  0.84424716    -0.09100
C887        C  0.04034800  0.14481587  0.86699284     0.06500
C888        C  0.05523645  0.15536614  0.87911552    -0.14100
S889        S  0.04139290  0.20575353  0.83327477    -0.31100
H890        H  0.01479885  0.17774911  0.81707465     0.10800
S891        S  0.04122791  0.12140695  0.88338851    -0.28200
H892        H  0.06650141  0.14915712  0.89686067     0.08000
H893        H  0.12929888  0.20551671  0.85040512     0.26400
H894        H  0.02433724  0.20649861  0.81210524     0.21200
H895        H  0.02382597  0.12153875  0.90199503     0.26500
H896        H  0.04227116  0.18298080  0.94811942     0.15400
C897        C  0.23588926  0.20823525  0.01915646    -0.11900
C898        C  0.24620638  0.22344463  0.03030075     0.14600
C899        C  0.23781327  0.24051947  0.03157728     0.01500
C900        C  0.21961658  0.24215995  0.01945136    -0.16300
C901        C  0.20924379  0.22706155  0.00677485    -0.11100
C902        C  0.21748916  0.20977853  0.00828742     0.08300
C903        C  0.26594825  0.22151161  0.03697684     0.09300
S904        S  0.24971992  0.26083992  0.04719813    -0.25400
H905        H  0.21363482  0.25550485  0.01920358     0.19600
S906        S  0.20536765  0.18913290  0.99796587    -0.31100
H907        H  0.24225818  0.19506814  0.01874780     0.09900
C908        C  0.27341455  0.21464316  0.07757328     0.03100
C909        C  0.29222731  0.21515796  0.08413015    -0.13400
C910        C  0.30361801  0.22263480  0.05105026    -0.09100
C911        C  0.29613776  0.22848298  0.00924493     0.06500
C912        C  0.27739363  0.22785874  0.00276739    -0.14100
S913        S  0.25890352  0.20646858  0.12219559    -0.31100
H914        H  0.29798408  0.21069195  0.11607716     0.10800
S915        S  0.31033886  0.23666463  0.96376372    -0.28200
H916        H  0.27149494  0.23280435  0.97142610     0.08000
H917        H  0.19064473  0.19412338  0.02523433     0.26400
H918        H  0.27270971  0.20220584  0.15339266     0.21200
H919        H  0.29640813  0.24065359  0.93269613     0.26500
H920        H  0.26209543  0.25256292  0.07698394     0.15400
C921        C  0.09182970  0.23159329  0.44940957    -0.11900
C922        C  0.09959200  0.22043891  0.41641650     0.14600
C923        C  0.11711816  0.22441778  0.40042021     0.01500
C924        C  0.12648309  0.23925386  0.41808824    -0.16300
C925        C  0.11871299  0.25054947  0.45092829    -0.11100
C926        C  0.10123047  0.24640562  0.46722807     0.08300
C927        C  0.08914782  0.20469020  0.39974609     0.09300
S928        S  0.12832240  0.21121193  0.35748684    -0.25400
H929        H  0.13985604  0.24224818  0.40521796     0.19600
S930        S  0.09055920  0.25877819  0.51237370    -0.31100
H931        H  0.07847084  0.22846543  0.46215198     0.09900
C932        C  0.09301875  0.18700973  0.41441604     0.03100
C933        C  0.08332599  0.17245375  0.39594984    -0.13400
C934        C  0.06979477  0.17511023  0.36281156    -0.09100
C935        C  0.06590769  0.19302711  0.34862760     0.06500
C936        C  0.07537989  0.20751867  0.36777556    -0.14100
S937        S  0.11029465  0.18301395  0.45675094    -0.31100
H938        H  0.08640753  0.15888495  0.40723741     0.10800
S939        S  0.05000673  0.19843171  0.30417791    -0.28200
H940        H  0.07248333  0.22112853  0.35632359     0.08000
H941        H  0.10649148  0.26088262  0.53805226     0.26400
H942        H  0.10794366  0.16422628  0.45990393     0.21200
H943        H  0.05715638  0.18570614  0.27374098     0.26500
H944        H  0.11268531  0.20490394  0.33552736     0.15400
C945        C  0.18077540  0.25302247  0.65995574    -0.11900
C946        C  0.17020391  0.25892718  0.69636543     0.14600
C947        C  0.15625879  0.27155619  0.68867522     0.01500
C948        C  0.15281274  0.27754432  0.64461754    -0.16300
C949        C  0.16299959  0.27134006  0.60766622    -0.11100
C950        C  0.17722402  0.25894739  0.61560950     0.08300
C951        C  0.17260884  0.25050671  0.74128428     0.09300
S952        S  0.14178539  0.27996942  0.73313024    -0.25400
H953        H  0.14200150  0.28719758  0.63919730     0.19600
S954        S  0.19044649  0.24922572  0.57066337    -0.31100
H955        H  0.19131771  0.24313059  0.66588213     0.09900
C956        C  0.16141065  0.23621076  0.75497245     0.03100
C957        C  0.16114955  0.23111898  0.80070591    -0.13400
C958        C  0.17200590  0.23996086  0.83301066    -0.09100
C959        C  0.18493282  0.25269109  0.81771827     0.06500
C960        C  0.18486141  0.25805183  0.77215304    -0.14100
S961        S  0.14667852  0.22517095  0.71463724    -0.31100
H962        H  0.15166861  0.22096353  0.81154463     0.10800
S963        S  0.20179689  0.26264453  0.85420581    -0.28200
H964        H  0.19391961  0.26863621  0.76103607     0.08000
H965        H  0.17556758  0.24639418  0.54163193     0.26400
H966        H  0.14092410  0.21126989  0.74376405     0.21200
H967        H  0.20456509  0.24688844  0.88009515     0.26500
H968        H  0.15424203  0.27839899  0.76896994     0.15400
C969        C  0.14213483  0.27705216  0.18076205    -0.11900
C970        C  0.15918911  0.28422738  0.19075640     0.14600
C971        C  0.17252126  0.28471214  0.15672451     0.01500
C972        C  0.16865987  0.27750344  0.11387353    -0.16300
C973        C  0.15169867  0.26988447  0.10408211    -0.11100
C974        C  0.13814685  0.27013406  0.13783381     0.08300
C975        C  0.16281446  0.28974075  0.23805725     0.09300
S976        S  0.19477183  0.29390337  0.16616391    -0.25400
H977        H  0.17916011  0.27743506  0.08833875     0.19600
S978        S  0.11541519  0.26222308  0.12834581    -0.31100
H979        H  0.13185386  0.27674792  0.20686149     0.09900
C980        C  0.15473758  0.30523349  0.25670050     0.03100
C981        C  0.15616207  0.30837912  0.30347976    -0.13400
C982        C  0.16535183  0.29619596  0.33188852    -0.09100
C983        C  0.17446433  0.28132460  0.31263456     0.06500
C984        C  0.17303060  0.27822739  0.26584991    -0.14100
S985        S  0.14227136  0.32072009  0.22099363    -0.31100
H986        H  0.14936330  0.31986728  0.31830651     0.10800
S987        S  0.18808878  0.26636460  0.34721954    -0.28200
H988        H  0.17934190  0.26647999  0.25095476     0.08000
H989        H  0.11417070  0.26914103  0.08391906     0.26400
H990        H  0.13751817  0.33293214  0.25543279     0.21200
H991        H  0.19402948  0.25512624  0.31187927     0.26500
H992        H  0.18980656  0.30613586  0.20030447     0.15400
C993        C  0.35835179  0.30109991  0.78953101    -0.11900
C994        C  0.34744118  0.28646665  0.80197710     0.14600
C995        C  0.33572277  0.27871054  0.76962272     0.01500
C996        C  0.33662035  0.28442014  0.72449362    -0.16300
C997        C  0.34852625  0.29817982  0.71120635    -0.11100
C998        C  0.35903366  0.30701164  0.74446678     0.08300
C999        C  0.35020194  0.27828813  0.84717208     0.09300
S1000       S  0.31991634  0.26105549  0.78359760    -0.25400
H1001       H  0.32819289  0.27783130  0.69929606     0.19600
S1002       S  0.37483430  0.32456220  0.73077442    -0.31100
H1003       H  0.36725713  0.30717807  0.81449989     0.09900
C1004       C  0.35938960  0.26175139  0.85213657     0.03100
C1005       C  0.36236055  0.25472229  0.89564546    -0.13400
C1006       C  0.35681665  0.26408617  0.93470002    -0.09100
C1007       C  0.34789546  0.28094342  0.92925942     0.06500
C1008       C  0.34453809  0.28767568  0.88566823    -0.14100
S1009       S  0.36791291  0.24983921  0.80317587    -0.31100
H1010       H  0.36916132  0.24186074  0.89910627     0.10800
S1011       S  0.34110619  0.29507248  0.97585750    -0.28200
H1012       H  0.33779297  0.30056738  0.88166248     0.08000
H1013       H  0.38245228  0.31485185  0.69462590     0.26400
H1014       H  0.37793932  0.23679307  0.82718960     0.21200
H1015       H  0.35832871  0.29474114  0.99630195     0.26500
H1016       H  0.31793436  0.26577835  0.82951817     0.15400
C1017       C  0.33267772  0.26737872  0.37025229    -0.11900
C1018       C  0.34586275  0.25559476  0.35325904     0.14600
C1019       C  0.36080617  0.25092657  0.38070693     0.01500
C1020       C  0.36303673  0.25916554  0.42276832    -0.16300
C1021       C  0.35045209  0.27171736  0.43896033    -0.11100
C1022       C  0.33478228  0.27550636  0.41292920     0.08300
C1023       C  0.34567716  0.25088744  0.30458423     0.09300
S1024       S  0.37793489  0.23512301  0.36302392    -0.25400
H1025       H  0.37488582  0.25588119  0.44293520     0.19600
S1026       S  0.31767448  0.29136942  0.43043377    -0.31100
H1027       H  0.32125242  0.27107565  0.34905710     0.09900
C1028       C  0.33334325  0.23847965  0.28572731     0.03100
C1029       C  0.33490302  0.23374841  0.23969485    -0.13400
C1030       C  0.34869523  0.24107686  0.21286738    -0.09100
C1031       C  0.36104332  0.25338756  0.23211649     0.06500
C1032       C  0.35915525  0.25842967  0.27730678    -0.14100
S1033       S  0.31612517  0.22830530  0.32054198    -0.31100
H1034       H  0.32547034  0.22433108  0.22455527     0.10800
S1035       S  0.37983149  0.26282244  0.20147965    -0.28200
H1036       H  0.36869921  0.26789729  0.29192766     0.08000
H1037       H  0.32946903  0.30354535  0.45184355     0.26400
H1038       H  0.30833556  0.21764728  0.28619178     0.21200
H1039       H  0.38256907  0.24789727  0.17303546     0.26500
H1040       H  0.36661825  0.22491123  0.33450593     0.15400
C1041       C  0.23626504  0.33436278  0.51235837    -0.11900
C1042       C  0.24759235  0.31920489  0.51381549     0.14600
C1043       C  0.24067546  0.30230019  0.50069928     0.01500
C1044       C  0.22246605  0.30069617  0.48898985    -0.16300
C1045       C  0.21076645  0.31572355  0.48822561    -0.11100
C1046       C  0.21812503  0.33291796  0.49863813     0.08300
C1047       C  0.26640564  0.32102533  0.53050116     0.09300
S1048       S  0.25437169  0.28216062  0.49849870    -0.25400
H1049       H  0.21746598  0.28739281  0.48046978     0.19600
S1050       S  0.20553949  0.35359442  0.49393672    -0.31100
H1051       H  0.24166301  0.34744257  0.52158553     0.09900
C1052       C  0.28007891  0.32854353  0.50321892     0.03100
C1053       C  0.29812845  0.32767919  0.51792890    -0.13400
C1054       C  0.30272322  0.31913979  0.55893746    -0.09100
C1055       C  0.28893891  0.31246219  0.58729003     0.06500
C1056       C  0.27090417  0.31351924  0.57281354    -0.14100
S1057       S  0.27472009  0.33779923  0.44804152    -0.31100
H1058       H  0.30880009  0.33263518  0.49619514     0.10800
S1059       S  0.29429336  0.30251447  0.64181313    -0.28200
H1060       H  0.26028290  0.30788285  0.59362999     0.08000
H1061       H  0.19840535  0.34937878  0.45088592     0.26400
H1062       H  0.29233875  0.34336230  0.43710196     0.21200
H1063       H  0.27637608  0.29986489  0.65604678     0.26500
H1064       H  0.27053495  0.29082954  0.48634330     0.15400
C1065       C  0.77369182  0.70907433  0.50847124    -0.11900
C1066       C  0.76125240  0.72105709  0.52795669     0.14600
C1067       C  0.76743615  0.73350818  0.56085269     0.01500
C1068       C  0.78594832  0.73506187  0.56967940    -0.16300
C1069       C  0.79851774  0.72376531  0.54844974    -0.11100
C1070       C  0.79222580  0.71023650  0.51849680     0.08300
C1071       C  0.74229213  0.72144492  0.51091431     0.09300
S1072       S  0.75238942  0.74788298  0.59251325    -0.25400
H1073       H  0.79060939  0.74515188  0.59361257     0.19600
S1074       S  0.80709798  0.69466782  0.49031026    -0.31100
H1075       H  0.76904045  0.69927988  0.48378347     0.09900
C1076       C  0.73529077  0.73691468  0.48906944     0.03100
C1077       C  0.71683250  0.73781865  0.47866725    -0.13400
C1078       C  0.70526987  0.72316564  0.48682557    -0.09100
C1079       C  0.71270686  0.70697787  0.50423256     0.06500
C1080       C  0.73100541  0.70641869  0.51713167    -0.14100
S1081       S  0.74990933  0.75540475  0.47332118    -0.31100
H1082       H  0.71136565  0.75000682  0.46361500     0.10800
S1083       S  0.69937395  0.68701651  0.51276585    -0.28200
H1084       H  0.73642938  0.69428139  0.53256799     0.08000
H1085       H  0.82142663  0.70682308  0.48533917     0.26400
H1086       H  0.73713692  0.76490512  0.44705463     0.21200
H1087       H  0.69478263  0.68552212  0.46652824     0.26500
H1088       H  0.73736129  0.73631597  0.59041620     0.15400
C1089       C  0.93864139  0.82804882  0.66177913    -0.11900
C1090       C  0.92184255  0.83083454  0.64074641     0.14600
C1091       C  0.91552186  0.84863009  0.63426907     0.01500
C1092       C  0.92598957  0.86315978  0.64940364    -0.16300
C1093       C  0.94260273  0.86043776  0.67170237    -0.11100
C1094       C  0.94918638  0.84259610  0.67663350     0.08300
C1095       C  0.91149510  0.81493877  0.62481900     0.09300
S1096       S  0.89414562  0.85373382  0.60750331    -0.25400
H1097       H  0.92072433  0.87671478  0.64527345     0.19600
S1098       S  0.97124578  0.83752117  0.69935627    -0.31100
H1099       H  0.94372882  0.81442013  0.66583961     0.09900
C1100       C  0.91135836  0.80984690  0.57878137     0.03100
C1101       C  0.90112987  0.79485703  0.56505533    -0.13400
C1102       C  0.89106884  0.78476092  0.59651297    -0.09100
C1103       C  0.89177909  0.78958412  0.64293088     0.06500
C1104       C  0.90180043  0.80468694  0.65647290    -0.14100
S1105       S  0.92430468  0.82240578  0.53761543    -0.31100
H1106       H  0.90071959  0.79115721  0.52954026     0.10800
S1107       S  0.88086857  0.77658798  0.68668169    -0.28200
H1108       H  0.90217452  0.80841066  0.69201705     0.08000
H1109       H  0.97956995  0.85238932  0.67841900     0.26400
H1110       H  0.91988899  0.81169433  0.49980570     0.21200
H1111       H  0.88480423  0.75968945  0.66737496     0.26500
H1112       H  0.88520038  0.83788802  0.62080211     0.15400
C1113       C  0.67268140  0.75189345  0.15228612    -0.11900
C1114       C  0.66195728  0.75804276  0.18810678     0.14600
C1115       C  0.64893195  0.77156205  0.18032298     0.01500
C1116       C  0.64632278  0.77806355  0.13649646    -0.16300
C1117       C  0.65657314  0.77159199  0.09994192    -0.11100
C1118       C  0.67014412  0.75849675  0.10804889     0.08300
C1119       C  0.66371632  0.74938111  0.23275996     0.09300
S1120       S  0.63475465  0.78067532  0.22443884    -0.25400
H1121       H  0.63610874  0.78832960  0.13097613     0.19600
S1122       S  0.68361861  0.74932007  0.06255996    -0.31100
H1123       H  0.68267088  0.74154166  0.15896268     0.09900
C1124       C  0.65050565  0.73722332  0.24820986     0.03100
C1125       C  0.65110768  0.73133366  0.29324311    -0.13400
C1126       C  0.66466017  0.73739875  0.32301903    -0.09100
C1127       C  0.67876770  0.74835329  0.30616293     0.06500
C1128       C  0.67804045  0.75437265  0.26123430    -0.14100
S1129       S  0.63241199  0.72991609  0.21116903    -0.31100
H1130       H  0.64034367  0.72285545  0.30598868     0.10800
S1131       S  0.69790901  0.75517415  0.34011779    -0.28200
H1132       H  0.68838634  0.76343474  0.24875154     0.08000
H1133       H  0.69230824  0.73580032  0.08814932     0.26400
H1134       H  0.62407489  0.71817028  0.24223495     0.21200
H1135       H  0.69836663  0.73939700  0.36676667     0.26500
H1136       H  0.64694842  0.77804249  0.26053145     0.15400
C1137       C  0.66713618  0.77397585  0.75920587    -0.11900
C1138       C  0.65668682  0.78484209  0.73029586     0.14600
C1139       C  0.64849530  0.80059710  0.74751975     0.01500
C1140       C  0.65047511  0.80481531  0.79356096    -0.16300
C1141       C  0.66024180  0.79348800  0.82293591    -0.11100
C1142       C  0.66908946  0.77816751  0.80516905     0.08300
C1143       C  0.65337202  0.77842857  0.68357125     0.09300
S1144       S  0.63470952  0.81536696  0.71309184    -0.25400
H1145       H  0.64369442  0.81659518  0.80694340     0.19600
S1146       S  0.68297618  0.76339451  0.83932390    -0.31100
H1147       H  0.67348119  0.76191038  0.74602020     0.09900
C1148       C  0.66707721  0.77854217  0.65064545     0.03100
C1149       C  0.66360031  0.77119232  0.60770901    -0.13400
C1150       C  0.64670027  0.76361166  0.59707590    -0.09100
C1151       C  0.63279304  0.76397718  0.62996851     0.06500
C1152       C  0.63636817  0.77131281  0.67287905    -0.14100
S1153       S  0.68891691  0.78821507  0.66323320    -0.31100
H1154       H  0.67421323  0.77105625  0.58254291     0.10800
S1155       S  0.61025064  0.75588629  0.61759038    -0.28200
H1156       H  0.62594022  0.77144816  0.69853767     0.08000
H1157       H  0.68924028  0.77697236  0.86873756     0.26400
H1158       H  0.69680270  0.78477327  0.62075951     0.21200
H1159       H  0.60288605  0.75874019  0.66091754     0.26500
H1160       H  0.64327553  0.81165572  0.67165988     0.15400
C1161       C  0.84064939  0.76258103  0.35494937    -0.11900
C1162       C  0.84528746  0.78055077  0.34616306     0.14600
C1163       C  0.85036585  0.79202758  0.38220550     0.01500
C1164       C  0.85177218  0.78486383  0.42604767    -0.16300
C1165       C  0.84864046  0.76647755  0.43388813    -0.11100
C1166       C  0.84224757  0.75543378  0.39843583     0.08300
C1167       C  0.84634654  0.78602492  0.29843415     0.09300
S1168       S  0.85611452  0.81549208  0.37441759    -0.25400
H1169       H  0.85654303  0.79335689  0.45350912     0.19600
S1170       S  0.83638371  0.73203770  0.40648975    -0.31100
H1171       H  0.83645730  0.75388217  0.32728885     0.09900
C1172       C  0.86064165  0.77975726  0.27132610     0.03100
C1173       C  0.86030572  0.78320839  0.22481730    -0.13400
C1174       C  0.84604858  0.79291504  0.20507707    -0.09100
C1175       C  0.83193457  0.79956230  0.23242382     0.06500
C1176       C  0.83226946  0.79609564  0.27906923    -0.14100
S1177       S  0.87930929  0.76735641  0.29604873    -0.31100
H1178       H  0.87123013  0.77842012  0.20364309     0.10800
S1179       S  0.81274281  0.81156091  0.20958501    -0.28200
H1180       H  0.82123034  0.80070099  0.30012982     0.08000
H1181       H  0.83093900  0.73409372  0.45182508     0.26400
H1182       H  0.88882646  0.76444466  0.25548382     0.21200
H1183       H  0.81186845  0.80183215  0.16867221     0.26500
H1184       H  0.86143963  0.81447018  0.32881253     0.15400
C1185       C  0.83243464  0.75190028  0.77248644    -0.11900
C1186       C  0.84778655  0.74752208  0.79810278     0.14600
C1187       C  0.86135951  0.73654681  0.77912653     0.01500
C1188       C  0.85992171  0.73134347  0.73373012    -0.16300
C1189       C  0.84505420  0.73663320  0.70710455    -0.11100
C1190       C  0.83079466  0.74638824  0.72740529     0.08300
C1191       C  0.84977699  0.75568046  0.84328507     0.09300
S1192       S  0.88120285  0.72953757  0.81030097    -0.25400
H1193       H  0.87091020  0.72382336  0.71856555     0.19600
S1194       S  0.81024500  0.75229837  0.69774857    -0.31100
H1195       H  0.82184728  0.76003272  0.78745777     0.09900
C1196       C  0.86158011  0.77028218  0.85048568     0.03100
C1197       C  0.86323306  0.77755980  0.89395913    -0.13400
C1198       C  0.85311641  0.77075058  0.93035587    -0.09100
C1199       C  0.84085380  0.75643809  0.92255944     0.06500
C1200       C  0.83938794  0.74901884  0.87915519    -0.14100
S1201       S  0.87432931  0.77988169  0.80428240    -0.31100
H1202       H  0.87243471  0.78869695  0.89962889     0.10800
S1203       S  0.82752352  0.74641116  0.96679887    -0.28200
H1204       H  0.83019511  0.73787177  0.87329907     0.08000
H1205       H  0.80984439  0.73666091  0.67074272     0.26400
H1206       H  0.88278700  0.79368219  0.82924677     0.21200
H1207       H  0.81669171  0.76188211  0.97114401     0.26500
H1208       H  0.87326669  0.72989752  0.85354411     0.15400
C1209       C  0.77104084  0.82648463  0.04395642    -0.11900
C1210       C  0.76324053  0.81263452  0.01794210     0.14600
C1211       C  0.77433457  0.79837464  0.00269885     0.01500
C1212       C  0.79241411  0.79756973  0.01651683    -0.16300
C1213       C  0.80016367  0.81107220  0.04371294    -0.11100
C1214       C  0.78932422  0.82585299  0.05704760     0.08300
C1215       C  0.74343432  0.81283146  0.00888969     0.09300
S1216       S  0.76631410  0.78082304  0.96529088    -0.25400
H1217       H  0.80063519  0.78636894  0.00528386     0.19600
S1218       S  0.79764847  0.84377065  0.09266351    -0.31100
H1219       H  0.76266582  0.83754160  0.05549109     0.09900
C1220       C  0.73202083  0.79933893  0.02669496     0.03100
C1221       C  0.71387069  0.79868077  0.01304577    -0.13400
C1222       C  0.70657891  0.81159041  0.98318938    -0.09100
C1223       C  0.71773171  0.82575574  0.96758642     0.06500
C1224       C  0.73600604  0.82623934  0.98064696    -0.14100
S1225       S  0.74043072  0.78309547  0.06748070    -0.31100
H1226       H  0.70522811  0.78806830  0.02589368     0.10800
S1227       S  0.70974855  0.84300846  0.92926489    -0.28200
H1228       H  0.74465823  0.83676422  0.96736751     0.08000
H1229       H  0.80869465  0.83267402  0.11977146     0.26400
H1230       H  0.72367687  0.77513993  0.07770561     0.21200
H1231       H  0.69854705  0.83151292  0.90370797     0.26500
H1232       H  0.75312733  0.79134926  0.94320715     0.15400
C1233       C  0.91820725  0.88445324  0.89954169    -0.11900
C1234       C  0.90036320  0.88562888  0.88400839     0.14600
C1235       C  0.89653579  0.89455210  0.84295995     0.01500
C1236       C  0.91081721  0.90050511  0.81602662    -0.16300
C1237       C  0.92895277  0.89778007  0.82921857    -0.11100
C1238       C  0.93260753  0.89039181  0.87287899     0.08300
C1239       C  0.88684992  0.87473433  0.90812556     0.09300
S1240       S  0.87383623  0.89756507  0.82178862    -0.25400
H1241       H  0.90763862  0.90650483  0.78338881     0.19600
S1242       S  0.95525327  0.88692529  0.89466597    -0.31100
H1243       H  0.92091314  0.87760295  0.93138806     0.09900
C1244       C  0.88204759  0.85754289  0.89179704     0.03100
C1245       C  0.87367835  0.84532631  0.92109581    -0.13400
C1246       C  0.87019277  0.84988528  0.96651490    -0.09100
C1247       C  0.87292972  0.86795867  0.98072782     0.06500
C1248       C  0.88157578  0.88004282  0.95161809    -0.14100
S1249       S  0.88861367  0.85025697  0.83570583    -0.31100
H1250       H  0.87124991  0.83166557  0.90961802     0.10800
S1251       S  0.86754664  0.87607983  0.03665579    -0.28200
H1252       H  0.88514674  0.89336729  0.96380938     0.08000
H1253       H  0.95046560  0.88378935  0.94017528     0.26400
H1254       H  0.87838251  0.83426577  0.83522331     0.21200
H1255       H  0.84973832  0.86944620  0.03508336     0.26500
H1256       H  0.86526946  0.89653296  0.86420988     0.15400
C1257       C  0.93863508  0.83521802  0.14695475    -0.11900
C1258       C  0.93716383  0.85347398  0.15871985     0.14600
C1259       C  0.92006254  0.86192971  0.15625731     0.01500
C1260       C  0.90506814  0.85221631  0.14014816    -0.16300
C1261       C  0.90669554  0.83411939  0.12674169    -0.11100
C1262       C  0.92362717  0.82544636  0.13160136     0.08300
C1263       C  0.95388095  0.86343487  0.17124784     0.09300
S1264       S  0.91664024  0.88517975  0.17188075    -0.25400
H1265       H  0.89217910  0.85902965  0.13651178     0.19600
S1266       S  0.92688031  0.80187352  0.11930439    -0.31100
H1267       H  0.95165219  0.82856669  0.14938890     0.09900
C1268       C  0.96252019  0.86070424  0.21338024     0.03100
C1269       C  0.97861555  0.86994670  0.22321811    -0.13400
C1270       C  0.98646798  0.88191507  0.19176715    -0.09100
C1271       C  0.97793558  0.88419910  0.14891195     0.06500
C1272       C  0.96168932  0.87516897  0.13950755    -0.14100
S1273       S  0.95269510  0.84591289  0.25532549    -0.31100
H1274       H  0.98489707  0.86810670  0.25614994     0.10800
S1275       S  0.98737772  0.89766434  0.10388196    -0.28200
H1276       H  0.95527078  0.87696323  0.10666364     0.08000
H1277       H  0.90969925  0.79660331  0.13463894     0.26400
H1278       H  0.96714623  0.84653619  0.28646232     0.21200
H1279       H  0.00515704  0.89172001  0.11152274     0.26500
H1280       H  0.93047123  0.88589250  0.20468496     0.15400
C1281       C  0.53699432  0.85559256  0.86172983    -0.11900
C1282       C  0.55321394  0.86522062  0.86585806     0.14600
C1283       C  0.55343758  0.88387085  0.85613104     0.01500
C1284       C  0.53738885  0.89251991  0.84353881    -0.16300
C1285       C  0.52110541  0.88293337  0.83944786    -0.11100
C1286       C  0.52094125  0.86425818  0.84906068     0.08300
C1287       C  0.56931462  0.85567226  0.88344622     0.09300
S1288       S  0.57367112  0.89739876  0.85928864    -0.25400
H1289       H  0.53770650  0.90682343  0.83579935     0.19600
S1290       S  0.50053107  0.85107194  0.84873616    -0.31100
H1291       H  0.53673759  0.84132897  0.86993028     0.09900
C1292       C  0.57504357  0.85791098  0.92873614     0.03100
C1293       C  0.59013083  0.84834588  0.94447529    -0.13400
C1294       C  0.59963825  0.83657351  0.91591556    -0.09100
C1295       C  0.59374275  0.83418690  0.87065866     0.06500
C1296       C  0.57870629  0.84385590  0.85483360    -0.14100
S1297       S  0.56287928  0.87258662  0.96685297    -0.31100
H1298       H  0.59460040  0.85004587  0.97927605     0.10800
S1299       S  0.60416743  0.81841995  0.83230669    -0.28200
H1300       H  0.57411705  0.84198412  0.82017102     0.08000
H1301       H  0.48994345  0.86492273  0.86739456     0.26400
H1302       H  0.57507260  0.87134757  0.00350680     0.21200
H1303       H  0.60883387  0.80559576  0.86561972     0.26500
H1304       H  0.58600992  0.88339171  0.85101798     0.15400
C1305       C  0.41572325  0.19608599  0.65517145    -0.11900
C1306       C  0.42603064  0.20865052  0.63092238     0.14600
C1307       C  0.44477354  0.20565582  0.62580016     0.01500
C1308       C  0.45270283  0.19025828  0.64527348    -0.16300
C1309       C  0.44227830  0.17756386  0.66908297    -0.11100
C1310       C  0.42356695  0.18072265  0.67429187     0.08300
C1311       C  0.41667132  0.22496810  0.61347801     0.09300
S1312       S  0.45922439  0.22076762  0.59455988    -0.25400
H1313       H  0.46708209  0.18803006  0.64125767     0.19600
S1314       S  0.40911605  0.16643075  0.70764609    -0.31100
H1315       H  0.40142367  0.19852124  0.66017389     0.09900
C1316       C  0.40250133  0.22351507  0.58152166     0.03100
C1317       C  0.39234836  0.23882854  0.57012981    -0.13400
C1318       C  0.39616543  0.25566554  0.58955641    -0.09100
C1319       C  0.41056886  0.25720692  0.62096929     0.06500
C1320       C  0.42070624  0.24186925  0.63243163    -0.14100
S1321       S  0.39758119  0.20220512  0.55445237    -0.31100
H1322       H  0.38149618  0.23776341  0.54548885     0.10800
S1323       S  0.41598621  0.27806426  0.64942193    -0.28200
H1324       H  0.43138411  0.24296899  0.65757018     0.08000
H1325       H  0.42139387  0.16519596  0.74403025     0.26400
H1326       H  0.38222926  0.20798459  0.53015274     0.21200
H1327       H  0.39802374  0.28409967  0.65311914     0.26500
H1328       H  0.44582521  0.22727219  0.56478521     0.15400
C1329       C  0.39397009  0.14167723  0.84455313    -0.11900
C1330       C  0.39964309  0.15099084  0.88356870     0.14600
C1331       C  0.41827289  0.15238689  0.89321304     0.01500
C1332       C  0.43075745  0.14546408  0.86265233    -0.16300
C1333       C  0.42527603  0.13729667  0.82192810    -0.11100
C1334       C  0.40660770  0.13461973  0.81386028     0.08300
C1335       C  0.38641144  0.16089058  0.91155947     0.09300
S1336       S  0.42712751  0.16400096  0.94233155    -0.25400
H1337       H  0.44499654  0.14761218  0.86934324     0.19600
S1338       S  0.39808685  0.12399488  0.76326692    -0.31100
H1339       H  0.37967181  0.14053837  0.83712763     0.09900
C1340       C  0.38027972  0.17805133  0.89762065     0.03100
C1341       C  0.37297485  0.18981117  0.92986812    -0.13400
C1342       C  0.37150945  0.18466412  0.97553516    -0.09100
C1343       C  0.37577867  0.16679546  0.98830761     0.06500
C1344       C  0.38327533  0.15509673  0.95621091    -0.14100
S1345       S  0.38401335  0.18592513  0.84032758    -0.31100
H1346       H  0.36978716  0.20357344  0.92034212     0.10800
S1347       S  0.37457843  0.15911473  0.04623846    -0.28200
H1348       H  0.38807713  0.14195342  0.96698394     0.08000
H1349       H  0.40908745  0.10864112  0.76821048     0.26400
H1350       H  0.37429600  0.20215109  0.84437482     0.21200
H1351       H  0.35743458  0.16660212  0.05407151     0.26500
H1352       H  0.41489879  0.17849563  0.94073409     0.15400
C1353       C  0.44746926  0.00353718  0.79629685    -0.11900
C1354       C  0.45831174  0.01098287  0.76215453     0.14600
C1355       C  0.46987327  0.99965607  0.73718991     0.01500
C1356       C  0.47058575  0.98127246  0.74734283    -0.16300
C1357       C  0.46015619  0.97370065  0.78233600    -0.11100
C1358       C  0.44837632  0.98511500  0.80705077     0.08300
C1359       C  0.45899568  0.03080201  0.75696669     0.09300
S1360       S  0.48491783  0.00788974  0.69376697    -0.25400
H1361       H  0.47963105  0.97283932  0.72792026     0.19600
S1362       S  0.43498992  0.97753359  0.85436349    -0.31100
H1363       H  0.43884278  0.01230274  0.81605112     0.09900
C1364       C  0.44784479  0.04008022  0.72595733     0.03100
C1365       C  0.45022365  0.05872956  0.71965492    -0.13400
C1366       C  0.46357975  0.06832154  0.74383326    -0.09100
C1367       C  0.47411827  0.05888208  0.77663843     0.06500
C1368       C  0.47180929  0.04031891  0.78231683    -0.14100
S1369       S  0.43129579  0.02792610  0.69282014    -0.31100
H1370       H  0.44203522  0.06572180  0.69467944     0.10800
S1371       S  0.49066224  0.06944541  0.81295223    -0.28200
H1372       H  0.48021242  0.03313724  0.80659450     0.08000
H1373       H  0.44903414  0.96773429  0.87504205     0.26400
H1374       H  0.42574875  0.04258089  0.66574394     0.21200
H1375       H  0.47958677  0.08426188  0.82276747     0.26500
H1376       H  0.47441497  0.02269012  0.67998421     0.15400
C1377       C  0.59434147  0.85114248  0.40179530    -0.11900
C1378       C  0.58672940  0.83427012  0.39195670     0.14600
C1379       C  0.57019975  0.83342333  0.36811217     0.01500
C1380       C  0.56217045  0.84935317  0.35252607    -0.16300
C1381       C  0.57009582  0.86629187  0.36061972    -0.11100
C1382       C  0.58634628  0.86712328  0.38604006     0.08300
C1383       C  0.59679596  0.81780409  0.40501551     0.09300
S1384       S  0.55895999  0.81244151  0.35528803    -0.25400
H1385       H  0.54965083  0.84848111  0.33341689     0.19600
S1386       S  0.59833989  0.88785575  0.39637324    -0.31100
H1387       H  0.60704858  0.85180049  0.42014671     0.09900
C1388       C  0.60736993  0.80825332  0.37342377     0.03100
C1389       C  0.61667189  0.79264342  0.38739063    -0.13400
C1390       C  0.61567283  0.78649995  0.43247762    -0.09100
C1391       C  0.60549734  0.79656038  0.46424771     0.06500
C1392       C  0.59604991  0.81191040  0.45007754    -0.14100
S1393       S  0.60910060  0.81606418  0.31549184    -0.31100
H1394       H  0.62453398  0.78507084  0.36306023     0.10800
S1395       S  0.60482440  0.79119161  0.52390638    -0.28200
H1396       H  0.58822998  0.81949294  0.47451640     0.08000
H1397       H  0.59696982  0.89387621  0.35115337     0.26400
H1398       H  0.62286669  0.80409925  0.30255198     0.21200
H1399       H  0.62335583  0.78717058  0.52696904     0.26500
H1400       H  0.56536304  0.80285483  0.39328153     0.15400
C1401       C  0.63580980  0.88141324  0.08894730    -0.11900
C1402       C  0.62577763  0.87649484  0.12726431     0.14600
C1403       C  0.62400522  0.85814077  0.13878231     0.01500
C1404       C  0.63107076  0.84504222  0.10990114    -0.16300
C1405       C  0.63971548  0.84974228  0.06904958    -0.11100
C1406       C  0.64321242  0.86823740  0.06034792     0.08300
C1407       C  0.61496583  0.89010817  0.15160718     0.09300
S1408       S  0.61101376  0.85117928  0.18771832    -0.25400
H1409       H  0.62859962  0.83101013  0.11784298     0.19600
S1410       S  0.65669696  0.87597358  0.01345329    -0.31100
H1411       H  0.63747535  0.89555930  0.08069858     0.09900
C1412       C  0.61877122  0.89466629  0.19698944     0.03100
C1413       C  0.60501741  0.90202046  0.22380722    -0.13400
C1414       C  0.58761298  0.90499659  0.20574605    -0.09100
C1415       C  0.58490707  0.90311181  0.15841667     0.06500
C1416       C  0.59850358  0.89538469  0.13204721    -0.14100
S1417       S  0.64054668  0.88947379  0.22163417    -0.31100
H1418       H  0.60743905  0.90398634  0.25971783     0.10800
S1419       S  0.56426858  0.90957094  0.12993799    -0.28200
H1420       H  0.59577569  0.89234331  0.09669844     0.08000
H1421       H  0.66939078  0.86189218  0.01727492     0.26400
H1422       H  0.63712871  0.89686406  0.26470351     0.21200
H1423       H  0.56036353  0.92393117  0.15952613     0.26500
H1424       H  0.61540542  0.83272837  0.18600842     0.15400
C1425       C  0.48800826  0.93941285  0.11575772    -0.11900
C1426       C  0.49191630  0.92711464  0.08115531     0.14600
C1427       C  0.50407873  0.91284414  0.08946933     0.01500
C1428       C  0.51157471  0.91080354  0.13261139    -0.16300
C1429       C  0.50758923  0.92292608  0.16783578    -0.11100
C1430       C  0.49551419  0.93738194  0.15913232     0.08300
C1431       C  0.48338867  0.92951300  0.03636911     0.09300
S1432       S  0.51069938  0.89683944  0.04647121    -0.25400
H1433       H  0.52087202  0.89973228  0.13840241     0.19600
S1434       S  0.48836183  0.95315079  0.20189418    -0.31100
H1435       H  0.47869304  0.95040219  0.10917300     0.09900
C1436       C  0.47026918  0.91737465  0.02011098     0.03100
C1437       C  0.46490482  0.91832063  0.97455245    -0.13400
C1438       C  0.47252864  0.93109073  0.94495571    -0.09100
C1439       C  0.48453095  0.94424052  0.96274448     0.06500
C1440       C  0.48987050  0.94319734  0.00813380    -0.14100
S1441       S  0.46098394  0.90022518  0.05689082    -0.31100
H1442       H  0.45553773  0.90838458  0.96139915     0.10800
S1443       S  0.49399953  0.96240210  0.92966603    -0.28200
H1444       H  0.49974123  0.95270082  0.02114102     0.08000
H1445       H  0.48469621  0.93970134  0.23432216     0.26400
H1446       H  0.45096559  0.89110461  0.02336309     0.21200
H1447       H  0.47856376  0.96501040  0.90259466     0.26500
H1448       H  0.50971826  0.90886580  0.00960103     0.15400
C1449       C  0.53782806  0.92673731  0.52351971    -0.11900
C1450       C  0.51974550  0.92863697  0.53605964     0.14600
C1451       C  0.50661085  0.93278557  0.50296021     0.01500
C1452       C  0.51157784  0.93340298  0.45740499    -0.16300
C1453       C  0.52956591  0.93045773  0.44400088    -0.11100
C1454       C  0.54297472  0.92791564  0.47805011     0.08300
C1455       C  0.51463605  0.92448682  0.58305011     0.09300
S1456       S  0.48317084  0.93652558  0.51664582    -0.25400
H1457       H  0.50115670  0.93586037  0.43219340     0.19600
S1458       S  0.56665379  0.92503609  0.46631543    -0.31100
H1459       H  0.54792031  0.92378715  0.54925727     0.09900
C1460       C  0.50659661  0.90787839  0.59391186     0.03100
C1461       C  0.50056203  0.90488668  0.63809375    -0.13400
C1462       C  0.50236983  0.91817357  0.67181375    -0.09100
C1463       C  0.51125621  0.93458797  0.66114457     0.06500
C1464       C  0.51733455  0.93748577  0.61672469    -0.14100
S1465       S  0.50385279  0.89055554  0.55130213    -0.31100
H1466       H  0.49414893  0.89217855  0.64622420     0.10800
S1467       S  0.51404246  0.95246794  0.70224503    -0.28200
H1468       H  0.52362740  0.95015025  0.60757977     0.08000
H1469       H  0.56797357  0.94166001  0.44337365     0.26400
H1470       H  0.49628615  0.87738718  0.57991149     0.21200
H1471       H  0.52513137  0.96366408  0.67568828     0.26500
H1472       H  0.48635680  0.94396797  0.55980235     0.15400
C1473       C  0.44467622  0.20369210  0.15277434    -0.11900
C1474       C  0.44475446  0.18479286  0.15612364     0.14600
C1475       C  0.42877568  0.17525466  0.14538434     0.01500
C1476       C  0.41332804  0.18469759  0.13134137    -0.16300
C1477       C  0.41337455  0.20357864  0.12633695    -0.11100
C1478       C  0.42929645  0.21315897  0.13815658     0.08300
C1479       C  0.46144917  0.17552994  0.17249499     0.09300
S1480       S  0.42737725  0.15097150  0.14688922    -0.25400
H1481       H  0.40138660  0.17706009  0.12222211     0.19600
S1482       S  0.43091400  0.23742017  0.13660534    -0.31100
H1483       H  0.45671375  0.21116678  0.16202187     0.09900
C1484       C  0.47792607  0.17675334  0.14862739     0.03100
C1485       C  0.49338684  0.16809201  0.16588600    -0.13400
C1486       C  0.49271818  0.15792142  0.20603034    -0.09100
C1487       C  0.47620765  0.15653841  0.22965657     0.06500
C1488       C  0.46084635  0.16542205  0.21286146    -0.14100
S1489       S  0.47910215  0.18840302  0.09477887    -0.31100
H1490       H  0.50589703  0.16863818  0.14712588     0.10800
S1491       S  0.47391617  0.14382692  0.28161410    -0.28200
H1492       H  0.44829442  0.16449721  0.23150767     0.08000
H1493       H  0.41345638  0.24029441  0.15365957     0.26400
H1494       H  0.49765954  0.18568913  0.08723792     0.21200
H1495       H  0.49147868  0.14723479  0.29780198     0.26500
H1496       H  0.44537046  0.14787549  0.13392585     0.15400
C1497       C  0.53680184  0.10399640  0.00601768    -0.11900
C1498       C  0.52533238  0.11793026  0.99118091     0.14600
C1499       C  0.51893576  0.13071108  0.02278067     0.01500
C1500       C  0.52330973  0.12875092  0.06848781    -0.16300
C1501       C  0.53445082  0.11466097  0.08355985    -0.11100
C1502       C  0.54147085  0.10224704  0.05193794     0.08300
C1503       C  0.51837544  0.11772566  0.94413948     0.09300
S1504       S  0.50508514  0.14981119  0.00709698    -0.25400
H1505       H  0.51818851  0.13854369  0.09254966     0.19600
S1506       S  0.55538171  0.08334414  0.06834815    -0.31100
H1507       H  0.54151554  0.09400598  0.98200162     0.09900
C1508       C  0.52967694  0.12011434  0.90623460     0.03100
C1509       C  0.52187264  0.12145825  0.86290527    -0.13400
C1510       C  0.50303118  0.12106910  0.85714521    -0.09100
C1511       C  0.49187041  0.11759740  0.89494310     0.06500
C1512       C  0.49970595  0.11582063  0.93778040    -0.14100
S1513       S  0.55377976  0.12282682  0.91317601    -0.31100
H1514       H  0.53040464  0.12377279  0.83373864     0.10800
S1515       S  0.46759657  0.11536010  0.89164961    -0.28200
H1516       H  0.49108593  0.11346176  0.96686246     0.08000
H1517       H  0.54671929  0.08027211  0.11004011     0.26400
H1518       H  0.55798738  0.12385676  0.86671370     0.21200
H1519       H  0.46628790  0.11066006  0.84564983     0.26500
H1520       H  0.51215883  0.15179878  0.96314369     0.15400
C1521       C  0.51594616  0.12186527  0.44188805    -0.11900
C1522       C  0.49965130  0.11234665  0.44466920     0.14600
C1523       C  0.49214205  0.10453387  0.40522056     0.01500
C1524       C  0.50092391  0.10686044  0.36360159    -0.16300
C1525       C  0.51705582  0.11674441  0.36066757    -0.11100
C1526       C  0.52481774  0.12394838  0.40055474     0.08300
C1527       C  0.49097673  0.11125798  0.48947955     0.09300
S1528       S  0.47109859  0.09224924  0.40508641    -0.25400
H1529       H  0.49481676  0.10142083  0.33305100     0.19600
S1530       S  0.54627011  0.13539647  0.40110212    -0.31100
H1531       H  0.52184445  0.12763386  0.47232687     0.09900
C1532       C  0.49542153  0.09735845  0.52010315     0.03100
C1533       C  0.48928719  0.09834276  0.56491835    -0.13400
C1534       C  0.47906154  0.11314657  0.57993371    -0.09100
C1535       C  0.47436502  0.12691494  0.54867085     0.06500
C1536       C  0.48014091  0.12565343  0.50366260    -0.14100
S1537       S  0.50948528  0.07875796  0.50238064    -0.31100
H1538       H  0.49293221  0.08781178  0.58878317     0.10800
S1539       S  0.46272377  0.14727344  0.56485130    -0.28200
H1540       H  0.47710438  0.13652073  0.48016538     0.08000
H1541       H  0.55424414  0.12343619  0.37004958     0.26400
H1542       H  0.50958381  0.06952626  0.54414295     0.21200
H1543       H  0.47336579  0.15022040  0.60387051     0.26500
H1544       H  0.47101221  0.08735272  0.45111796     0.15400
C1545       C  0.57043570  0.04242566  0.28209016    -0.11900
C1546       C  0.56091252  0.02988057  0.25552855     0.14600
C1547       C  0.55103672  0.03595558  0.21734531     0.01500
C1548       C  0.55035979  0.05438459  0.20762988    -0.16300
C1549       C  0.55908102  0.06709305  0.23537681    -0.11100
C1550       C  0.56957433  0.06097079  0.27256810     0.08300
C1551       C  0.55998758  0.01086487  0.27060793     0.09300
S1552       S  0.53860575  0.02107573  0.18007501    -0.25400
H1553       H  0.54238852  0.05892508  0.17883239     0.19600
S1554       S  0.58108276  0.07609742  0.31082488    -0.31100
H1555       H  0.57796349  0.03779397  0.31152807     0.09900
C1556       C  0.57006132  0.99714171  0.24950503     0.03100
C1557       C  0.56676791  0.97903242  0.26099311    -0.13400
C1558       C  0.55353120  0.97442903  0.29307568    -0.09100
C1559       C  0.54427036  0.98838052  0.31608322     0.06500
C1560       C  0.54747556  0.00635861  0.30428417    -0.14100
S1561       S  0.58666328  0.00273070  0.20706666    -0.31100
H1562       H  0.57403090  0.96839734  0.24371921     0.10800
S1563       S  0.52842715  0.98422410  0.36127306    -0.28200
H1564       H  0.53987783  0.01695631  0.32088025     0.08000
H1565       H  0.56701843  0.08884555  0.31268862     0.26400
H1566       H  0.59229208  0.98495294  0.19831390     0.21200
H1567       H  0.53812137  0.96965937  0.38006582     0.26500
H1568       H  0.53469798  0.00753121  0.21189679     0.15400
C1569       C  0.92350532  0.73436528  0.08857620    -0.11900
C1570       C  0.91563377  0.72173934  0.11790884     0.14600
C1571       C  0.89764880  0.72426979  0.13229257     0.01500
C1572       C  0.88784806  0.73911977  0.11638949    -0.16300
C1573       C  0.89559381  0.75178942  0.08677421    -0.11100
C1574       C  0.91362449  0.74917473  0.07228093     0.08300
C1575       C  0.92616122  0.70568452  0.13180039     0.09300
S1576       S  0.88632215  0.70896143  0.17047890    -0.25400
H1577       H  0.87407535  0.74093042  0.12787248     0.19600
S1578       S  0.92438946  0.76339963  0.03077267    -0.31100
H1579       H  0.93723972  0.73231210  0.07708590     0.09900
C1580       C  0.92277376  0.68862805  0.11263463     0.03100
C1581       C  0.93139770  0.67334990  0.13071261    -0.13400
C1582       C  0.94333781  0.67474470  0.16777292    -0.09100
C1583       C  0.94706559  0.69208638  0.18595847     0.06500
C1584       C  0.93868188  0.70731590  0.16725787    -0.14100
S1585       S  0.90725087  0.68634100  0.06553072    -0.31100
H1586       H  0.92862367  0.66020480  0.11633776     0.10800
S1587       S  0.96101148  0.69572136  0.23539094    -0.28200
H1588       H  0.94114316  0.72045118  0.18216050     0.08000
H1589       H  0.90896793  0.76493748  0.00291462     0.26400
H1590       H  0.90851963  0.66748253  0.06144939     0.21200
H1591       H  0.95212091  0.68252000  0.26140024     0.26500
H1592       H  0.90177288  0.70329874  0.19442815     0.15400
C1593       C  0.87317900  0.65730814  0.43627197    -0.11900
C1594       C  0.88174043  0.66344665  0.39677990     0.14600
C1595       C  0.88087331  0.68191540  0.38535703     0.01500
C1596       C  0.87350388  0.69408410  0.41615694    -0.16300
C1597       C  0.86659931  0.68824669  0.45794102    -0.11100
C1598       C  0.86520468  0.66951032  0.46651218     0.08300
C1599       C  0.89466686  0.65152926  0.37334107     0.09300
S1600       S  0.89109382  0.69105817  0.33482981    -0.25400
H1601       H  0.87431233  0.70840014  0.40879429     0.19600
S1602       S  0.85539584  0.66049491  0.51752485    -0.31100
H1603       H  0.87371779  0.64310517  0.44496328     0.09900
C1604       C  0.91300596  0.65168824  0.38622239     0.03100
C1605       C  0.92583502  0.64387891  0.35764025    -0.13400
C1606       C  0.92073851  0.63580347  0.31641854    -0.09100
C1607       C  0.90212109  0.63398568  0.30611463     0.06500
C1608       C  0.88927364  0.64196211  0.33461962    -0.14100
S1609       S  0.92025102  0.66311815  0.43733470    -0.31100
H1610       H  0.94004107  0.64500844  0.36613696     0.10800
S1611       S  0.89403742  0.62362019  0.25475439    -0.28200
H1612       H  0.87512367  0.64171439  0.32505711     0.08000
H1613       H  0.83951844  0.67078008  0.51355118     0.26400
H1614       H  0.93832973  0.65726931  0.43632790     0.21200
H1615       H  0.90325108  0.60732954  0.26301733     0.26500
H1616       H  0.88700753  0.67627145  0.30691882     0.15400
C1617       C  0.93800812  0.49667121  0.28409780    -0.11900
C1618       C  0.95229620  0.50656556  0.26532945     0.14600
C1619       C  0.96891304  0.49784530  0.25754513     0.01500
C1620       C  0.97112961  0.47979728  0.27018457    -0.16300
C1621       C  0.95705415  0.46973353  0.29004793    -0.11100
C1622       C  0.94016743  0.47846671  0.29660925     0.08300
C1623       C  0.95046168  0.52636582  0.25897613     0.09300
S1624       S  0.98810913  0.50920526  0.23302378    -0.25400
H1625       H  0.98423063  0.47367956  0.26478636     0.19600
S1626       S  0.92093649  0.46746521  0.32143779    -0.31100
H1627       H  0.92524304  0.50336006  0.29042480     0.09900
C1628       C  0.94315296  0.53400306  0.21902477     0.03100
C1629       C  0.94456562  0.55274256  0.21171553    -0.13400
C1630       C  0.95308723  0.56393637  0.24379839    -0.09100
C1631       C  0.95884244  0.55634805  0.28558972     0.06500
C1632       C  0.95772958  0.53770543  0.29234297    -0.14100
S1633       S  0.93333426  0.51970654  0.17600164    -0.31100
H1634       H  0.94005662  0.55849905  0.17981063     0.10800
S1635       S  0.96791527  0.56968930  0.33155900    -0.28200
H1636       H  0.96298966  0.53190129  0.32351579     0.08000
H1637       H  0.92994675  0.46420162  0.36283654     0.26400
H1638       H  0.92765255  0.53368258  0.14687669     0.21200
H1639       H  0.95778043  0.58528203  0.32155574     0.26500
H1640       H  0.97815915  0.52105433  0.20527913     0.15400
C1641       C  0.04961811  0.37759959  0.39944000    -0.11900
C1642       C  0.05478010  0.36216647  0.37538105     0.14600
C1643       C  0.04379370  0.35596220  0.33949429     0.01500
C1644       C  0.02813473  0.36550547  0.32786418    -0.16300
C1645       C  0.02292323  0.38120963  0.35135912    -0.11100
C1646       C  0.03372871  0.38696867  0.38855527     0.08300
C1647       C  0.07095681  0.35209792  0.39073409     0.09300
S1648       S  0.04886653  0.33584660  0.30756236    -0.25400
H1649       H  0.02008277  0.36064041  0.29962724     0.19600
S1650       S  0.02779011  0.40551133  0.42504327    -0.31100
H1651       H  0.05780011  0.38207071  0.42788706     0.09900
C1652       C  0.08851080  0.35742177  0.37831978     0.03100
C1653       C  0.10345492  0.34764202  0.39468236    -0.13400
C1654       C  0.10121303  0.33258562  0.42330612    -0.09100
C1655       C  0.08339509  0.32696714  0.43408243     0.06500
C1656       C  0.06859556  0.33690086  0.41823113    -0.14100
S1657       S  0.09179981  0.37666335  0.34161072    -0.31100
H1658       H  0.11695957  0.35206246  0.38612050     0.10800
S1659       S  0.07840489  0.30697815  0.46655636    -0.28200
H1660       H  0.05503895  0.33265125  0.42707293     0.08000
H1661       H  0.00986659  0.39969994  0.43077168     0.26400
H1662       H  0.11075828  0.37564513  0.33984495     0.21200
H1663       H  0.09119834  0.29633968  0.44373680     0.26500
H1664       H  0.06773979  0.33678146  0.31216085     0.15400
C1665       C  0.97382309  0.68022809  0.64482712    -0.11900
C1666       C  0.95678932  0.67731932  0.66430034     0.14600
C1667       C  0.95503119  0.66429946  0.69911928     0.01500
C1668       C  0.97011981  0.65430648  0.71295552    -0.16300
C1669       C  0.98714682  0.65720592  0.69358594    -0.11100
C1670       C  0.98896377  0.67026784  0.65885878     0.08300
C1671       C  0.94080113  0.68670071  0.64482765     0.09300
S1672       S  0.93392813  0.65984182  0.72739663    -0.25400
H1673       H  0.96862053  0.64436544  0.73972975     0.19600
S1674       S  0.00987872  0.67400839  0.62913039    -0.31100
H1675       H  0.97518751  0.68988960  0.61738529     0.09900
C1676       C  0.93828087  0.70549351  0.64887243     0.03100
C1677       C  0.92263781  0.71352287  0.63050964    -0.13400
C1678       C  0.90937136  0.70311497  0.60849578    -0.09100
C1679       C  0.91224668  0.68433893  0.60377352     0.06500
C1680       C  0.92785392  0.67641439  0.62170622    -0.14100
S1681       S  0.95465196  0.71914123  0.67870097    -0.31100
H1682       H  0.92057129  0.72791728  0.63393530     0.10800
S1683       S  0.89720235  0.66997678  0.57229516    -0.28200
H1684       H  0.92994716  0.66203303  0.61764098     0.08000
H1685       H  0.01549606  0.65588621  0.63030086     0.26400
H1686       H  0.94642527  0.73590414  0.66989781     0.21200
H1687       H  0.88363623  0.67093134  0.60551765     0.26500
H1688       H  0.92687140  0.67735919  0.72263907     0.15400
C1689       C  0.01911475  0.59956218  0.40856071    -0.11900
C1690       C  0.00903915  0.60558106  0.44557056     0.14600
C1691       C  0.99243959  0.61446873  0.43842866     0.01500
C1692       C  0.98628122  0.61714693  0.39430754    -0.16300
C1693       C  0.99665522  0.61186259  0.35673207    -0.11100
C1694       C  0.01308680  0.60244355  0.36421596     0.08300
C1695       C  0.01680423  0.60381449  0.49111729     0.09300
S1696       S  0.97891351  0.62356891  0.48385322    -0.25400
H1697       H  0.97353098  0.62410221  0.38946095     0.19600
S1698       S  0.02748208  0.59446442  0.31941871    -0.31100
H1699       H  0.03192511  0.59282426  0.41434964     0.09900
C1700       C  0.00893829  0.59256997  0.52404113     0.03100
C1701       C  0.01469459  0.59401399  0.56909474    -0.13400
C1702       C  0.02815900  0.60640739  0.58133229    -0.09100
C1703       C  0.03669270  0.61688783  0.54772247     0.06500
C1704       C  0.03107741  0.61530116  0.50277332    -0.14100
S1705       S  0.99127568  0.57687254  0.50882115    -0.31100
H1706       H  0.00838921  0.58586168  0.59514336     0.10800
S1707       S  0.05325925  0.63388124  0.56068424    -0.28200
H1708       H  0.03697460  0.62400662  0.47720443     0.08000
H1709       H  0.01403592  0.58313485  0.30119598     0.26400
H1710       H  0.98777983  0.57065008  0.55306278     0.21200
H1711       H  0.04260177  0.64176965  0.59466645     0.26500
H1712       H  0.99348802  0.62896201  0.51139202     0.15400
C1713       C  0.96690058  0.60641992  0.99897988    -0.11900
C1714       C  0.98529888  0.60602268  0.98791372     0.14600
C1715       C  0.99839444  0.60521778  0.02272571     0.01500
C1716       C  0.99282313  0.60476708  0.06777355    -0.16300
C1717       C  0.97445363  0.60591373  0.07924659    -0.11100
C1718       C  0.96129010  0.60647224  0.04438666     0.08300
C1719       C  0.99054803  0.60839185  0.94019917     0.09300
S1720       S  0.02241517  0.60568937  0.01223623    -0.25400
H1721       H  0.00306301  0.60456680  0.09420924     0.19600
S1722       S  0.93742897  0.60690689  0.05706943    -0.31100
H1723       H  0.95699633  0.60707142  0.97185291     0.09900
C1724       C  0.99862359  0.59446350  0.91506882     0.03100
C1725       C  0.00549745  0.59830635  0.87191128    -0.13400
C1726       C  0.00438335  0.61580408  0.85355016    -0.09100
C1727       C  0.99526517  0.62946451  0.87797333     0.06500
C1728       C  0.98855720  0.62556942  0.92114142    -0.14100
S1729       S  0.00033809  0.57193743  0.93818908    -0.31100
H1730       H  0.01217725  0.58776972  0.85292587     0.10800
S1731       S  0.99160107  0.65177903  0.85460122    -0.28200
H1732       H  0.98213982  0.63605624  0.94087540     0.08000
H1733       H  0.93128220  0.60940767  0.01224151     0.26400
H1734       H  0.00971303  0.56427893  0.90151689     0.21200
H1735       H  0.98105210  0.65860244  0.89026580     0.26500
H1736       H  0.02172847  0.61699321  0.97391459     0.15400
C1737       C  0.00760999  0.43110352  0.11645254    -0.11900
C1738       C  0.01542897  0.41593603  0.09606196     0.14600
C1739       C  0.01703588  0.39969158  0.12079395     0.01500
C1740       C  0.00944302  0.39854306  0.16393613    -0.16300
C1741       C  0.00094111  0.41348061  0.18356864    -0.11100
C1742       C  0.00028952  0.43002763  0.15996884     0.08300
C1743       C  0.01990550  0.41696226  0.04753463     0.09300
S1744       S  0.02825170  0.37993845  0.09885963    -0.25400
H1745       H  0.01020288  0.38590792  0.18246179     0.19600
S1746       S  0.98931904  0.44979341  0.18220648    -0.31100
H1747       H  0.00639366  0.44358598  0.09743891     0.09900
C1748       C  0.00945088  0.40769426  0.01507149     0.03100
C1749       C  0.01366763  0.40947922  0.96919939    -0.13400
C1750       C  0.02795200  0.42054897  0.95485796    -0.09100
C1751       C  0.03824858  0.43003767  0.98750802     0.06500
C1752       C  0.03420237  0.42800569  0.03355149    -0.14100
S1753       S  0.99019102  0.39422974  0.03153761    -0.31100
H1754       H  0.00568135  0.40226455  0.94430167     0.10800
S1755       S  0.05596547  0.44561471  0.97275765    -0.28200
H1756       H  0.04199651  0.43534783  0.05864683     0.08000
H1757       H  0.97503521  0.44036384  0.20268573     0.26400
H1758       H  0.98820126  0.38511399  0.98998776     0.21200
H1759       H  0.04660960  0.45316693  0.93559770     0.26500
H1760       H  0.03968032  0.38914002  0.06868340     0.15400
C1761       C  0.00449049  0.43987857  0.60612116    -0.11900
C1762       C  0.98696116  0.43342248  0.59771351     0.14600
C1763       C  0.97708184  0.42551643  0.63359175     0.01500
C1764       C  0.98560055  0.42256412  0.67533377    -0.16300
C1765       C  0.00338139  0.42829897  0.68269189    -0.11100
C1766       C  0.01252364  0.43795120  0.64873158     0.08300
C1767       C  0.98080160  0.43226287  0.55001931     0.09300
S1768       S  0.95387155  0.41843464  0.62776502    -0.25400
H1769       H  0.97845682  0.41545805  0.70198543     0.19600
S1770       S  0.03481875  0.44707842  0.65699156    -0.31100
H1771       H  0.01226647  0.44582287  0.57884855     0.09900
C1772       C  0.98072278  0.44737822  0.52080780     0.03100
C1773       C  0.97744479  0.44487302  0.47435971    -0.13400
C1774       C  0.97378161  0.42766552  0.45701835    -0.09100
C1775       C  0.97339391  0.41263590  0.48645920     0.06500
C1776       C  0.97697907  0.41510361  0.53245190    -0.14100
S1777       S  0.98426367  0.46986067  0.54268623    -0.31100
H1778       H  0.97748427  0.45632873  0.45149934     0.10800
S1779       S  0.96932220  0.38983266  0.46742719    -0.28200
H1780       H  0.97747286  0.40339586  0.55451592     0.08000
H1781       H  0.03191210  0.45234052  0.70216330     0.26400
H1782       H  0.98441918  0.47876613  0.50047971     0.21200
H1783       H  0.97777298  0.39161952  0.42501890     0.26500
H1784       H  0.94947532  0.43058896  0.59268453     0.15400
C1785       C  0.04311246  0.53194070  0.73098307    -0.11900
C1786       C  0.05364938  0.52800638  0.76938068     0.14600
C1787       C  0.06307341  0.54208033  0.79139231     0.01500
C1788       C  0.06097315  0.55987496  0.77588646    -0.16300
C1789       C  0.04979995  0.56389438  0.73850942    -0.11100
C1790       C  0.04127941  0.54961013  0.71498563     0.08300
C1791       C  0.05359276  0.50917351  0.78625499     0.09300
S1792       S  0.07734074  0.53831651  0.84027296    -0.25400
H1793       H  0.06764079  0.57071800  0.79402151     0.19600
S1794       S  0.02810562  0.55297837  0.66397571    -0.31100
H1795       H  0.03610580  0.52112527  0.71354759     0.09900
C1796       C  0.04134822  0.50356617  0.81987389     0.03100
C1797       C  0.03954446  0.48511014  0.82958566    -0.13400
C1798       C  0.04978724  0.47206059  0.80646498    -0.09100
C1799       C  0.06259838  0.47789757  0.77391176     0.06500
C1800       C  0.06434261  0.49633291  0.76435918    -0.14100
S1801       S  0.02748826  0.51988783  0.84903473    -0.31100
H1802       H  0.02987335  0.48078516  0.85482154     0.10800
S1803       S  0.07640023  0.46269154  0.74119614    -0.28200
H1804       H  0.07364979  0.50067773  0.73823467     0.08000
H1805       H  0.03856894  0.56739014  0.64746732     0.26400
H1806       H  0.01830914  0.50753640  0.87694006     0.21200
H1807       H  0.06256321  0.45021890  0.73235250     0.26500
H1808       H  0.08201966  0.52043189  0.82986223     0.15400
C1809       C  0.08956035  0.30072270  0.91190957    -0.11900
C1810       C  0.09878691  0.31605124  0.89660905     0.14600
C1811       C  0.11784495  0.31598081  0.89590661     0.01500
C1812       C  0.12723062  0.30084656  0.91196254    -0.16300
C1813       C  0.11807739  0.28568950  0.92910870    -0.11100
C1814       C  0.09893973  0.28544206  0.92758194     0.08300
C1815       C  0.08808274  0.33172667  0.88075879     0.09300
S1816       S  0.13102689  0.33461794  0.87457435    -0.25400
H1817       H  0.14186518  0.30114053  0.91214827     0.19600
S1818       S  0.08625586  0.26552298  0.94304268    -0.31100
H1819       H  0.07493661  0.30075329  0.91115866     0.09900
C1820       C  0.08389650  0.33417501  0.83455641     0.03100
C1821       C  0.07400574  0.34941138  0.82094051    -0.13400
C1822       C  0.06798219  0.36225716  0.85268660    -0.09100
C1823       C  0.07163816  0.35926723  0.89939613     0.06500
C1824       C  0.08178733  0.34418601  0.91272863    -0.14100
S1825       S  0.09133575  0.31795977  0.79293508    -0.31100
H1826       H  0.07136460  0.35152823  0.78514771     0.10800
S1827       S  0.06337381  0.37373812  0.94386912    -0.28200
H1828       H  0.08473294  0.34205993  0.94841592     0.08000
H1829       H  0.06902496  0.27216076  0.93155746     0.26400
H1830       H  0.08180341  0.32533676  0.75589830     0.21200
H1831       H  0.04620498  0.37617847  0.92404209     0.26500
H1832       H  0.11853946  0.34834549  0.88407421     0.15400
C1833       C  0.09710030  0.39418052  0.63889857    -0.11900
C1834       C  0.11278001  0.38783658  0.66040035     0.14600
C1835       C  0.11566583  0.39155575  0.70668345     0.01500
C1836       C  0.10191818  0.39967898  0.73165738    -0.16300
C1837       C  0.08518688  0.40405719  0.71149647    -0.11100
C1838       C  0.08319791  0.40224001  0.66386989     0.08300
C1839       C  0.12333248  0.37393058  0.63659916     0.09300
S1840       S  0.13568985  0.38432699  0.73672922    -0.25400
H1841       H  0.10385738  0.40117022  0.76794065     0.19600
S1842       S  0.06280528  0.40910065  0.63460123    -0.31100
H1843       H  0.09514560  0.39138289  0.60313602     0.09900
C1844       C  0.11982390  0.35556682  0.64491815     0.03100
C1845       C  0.12764869  0.34253507  0.61707597    -0.13400
C1846       C  0.13878502  0.34739540  0.58043429    -0.09100
C1847       C  0.14356377  0.36579598  0.57500163     0.06500
C1848       C  0.13545590  0.37889130  0.60245643    -0.14100
S1849       S  0.10408555  0.34874936  0.68853683    -0.31100
H1850       H  0.12405154  0.32854215  0.62226611     0.10800
S1851       S  0.15990677  0.37345524  0.53426376    -0.28200
H1852       H  0.13839857  0.39303305  0.59681346     0.08000
H1853       H  0.06843793  0.40480339  0.59038195     0.26400
H1854       H  0.10552414  0.33002340  0.68187681     0.21200
H1855       H  0.17118532  0.35839137  0.54068575     0.26500
H1856       H  0.14699301  0.38387060  0.69852530     0.15400
C1857       C  0.09600901  0.88955323  0.39713361    -0.11900
C1858       C  0.11370416  0.88784457  0.38092971     0.14600
C1859       C  0.11812661  0.89528039  0.33827893     0.01500
C1860       C  0.10440094  0.90254153  0.31081557    -0.16300
C1861       C  0.08633482  0.90246462  0.32519554    -0.11100
C1862       C  0.08235688  0.89695200  0.36996736     0.08300
C1863       C  0.12580698  0.87510528  0.40505929     0.09300
S1864       S  0.14073878  0.89464457  0.31597121    -0.25400
H1865       H  0.10764517  0.90695310  0.27670439     0.19600
S1866       S  0.05997041  0.89837271  0.39350500    -0.31100
H1867       H  0.09258185  0.88408835  0.43016391     0.09900
C1868       C  0.13395567  0.87936833  0.44698785     0.03100
C1869       C  0.14151945  0.86548667  0.47360343    -0.13400
C1870       C  0.14079667  0.84746621  0.45903966    -0.09100
C1871       C  0.13423756  0.84360288  0.41503480     0.06500
C1872       C  0.12674196  0.85740407  0.38867352    -0.14100
S1873       S  0.13369674  0.90225710  0.46761633    -0.31100
H1874       H  0.14656199  0.86845009  0.50732895     0.10800
S1875       S  0.13425549  0.82114767  0.39168281    -0.28200
H1876       H  0.12067058  0.85413940  0.35616135     0.08000
H1877       H  0.05492482  0.91356217  0.36773861     0.26400
H1878       H  0.14484492  0.89918731  0.50566447     0.21200
H1879       H  0.14974027  0.81543466  0.41556575     0.26500
H1880       H  0.14951862  0.89387982  0.35837083     0.15400
C1881       C  0.07497207  0.83195999  0.65886239    -0.11900
C1882       C  0.07139763  0.84980426  0.64584646     0.14600
C1883       C  0.08385376  0.85917885  0.61844024     0.01500
C1884       C  0.09953184  0.85042688  0.60417010    -0.16300
C1885       C  0.10283720  0.83238362  0.61595376    -0.11100
C1886       C  0.09063467  0.82318572  0.64447834     0.08300
C1887       C  0.05520924  0.85870509  0.66396044     0.09300
S1888       S  0.08034856  0.88213462  0.59986299    -0.25400
H1889       H  0.10880295  0.85748307  0.58196442     0.19600
S1890       S  0.09457245  0.80050621  0.66465452    -0.31100
H1891       H  0.06561118  0.82493840  0.68087261     0.09900
C1892       C  0.03791447  0.85550750  0.64555599     0.03100
C1893       C  0.02301052  0.86463958  0.66359609    -0.13400
C1894       C  0.02520644  0.87710446  0.69893094    -0.09100
C1895       C  0.04247148  0.87965214  0.71836297     0.06500
C1896       C  0.05730378  0.87059106  0.70039027    -0.14100
S1897       S  0.03499806  0.84045068  0.59797764    -0.31100
H1898       H  0.00969237  0.86244836  0.64939719     0.10800
S1899       S  0.04630027  0.89355868  0.76739836    -0.28200
H1900       H  0.07059115  0.87269203  0.71510780     0.08000
H1901       H  0.11354854  0.80156725  0.66432896     0.26400
H1902       H  0.01626038  0.84296661  0.59279579     0.21200
H1903       H  0.02973507  0.88936262  0.78809039     0.26500
H1904       H  0.06137973  0.88142775  0.59867675     0.15400
C1905       C  0.09617334  0.72421398  0.57830543    -0.11900
C1906       C  0.09592583  0.71990029  0.62455410     0.14600
C1907       C  0.10584291  0.73057481  0.65556516     0.01500
C1908       C  0.11584497  0.74527357  0.63943448    -0.16300
C1909       C  0.11616295  0.74957782  0.59299095    -0.11100
C1910       C  0.10637573  0.73868159  0.56211774     0.08300
C1911       C  0.08634849  0.70334047  0.63845097     0.09300
S1912       S  0.10683379  0.72584865  0.71566290    -0.25400
H1913       H  0.12341434  0.75344793  0.66334903     0.19600
S1914       S  0.10753181  0.74150142  0.50144452    -0.31100
H1915       H  0.08890840  0.71576777  0.55439550     0.09900
C1916       C  0.06788148  0.70358608  0.64956023     0.03100
C1917       C  0.05945421  0.68754131  0.66315945    -0.13400
C1918       C  0.06899476  0.67114677  0.66443995    -0.09100
C1919       C  0.08732279  0.67088322  0.65136179     0.06500
C1920       C  0.09584438  0.68698887  0.63902681    -0.14100
S1921       S  0.05528519  0.72444231  0.64810081    -0.31100
H1922       H  0.04547922  0.68780737  0.67385523     0.10800
S1923       S  0.10088118  0.65075360  0.65366342    -0.28200
H1924       H  0.11002627  0.68681633  0.63002829     0.08000
H1925       H  0.12621740  0.74490179  0.50096461     0.26400
H1926       H  0.03817645  0.71671113  0.65527968     0.21200
H1927       H  0.08967052  0.64130759  0.62324849     0.26500
H1928       H  0.09017772  0.71691753  0.71895140     0.15400
C1929       C  0.37883947  0.86392563  0.63003985    -0.11900
C1930       C  0.38452618  0.88038576  0.61122327     0.14600
C1931       C  0.38162544  0.88368326  0.56447524     0.01500
C1932       C  0.37489966  0.86984231  0.53696307    -0.16300
C1933       C  0.37086439  0.85288083  0.55537261    -0.11100
C1934       C  0.37189338  0.85021559  0.60262332     0.08300
C1935       C  0.39688080  0.89166287  0.63880232     0.09300
S1936       S  0.38752254  0.90473249  0.53758330    -0.25400
H1937       H  0.37404248  0.87190378  0.50055942     0.19600
S1938       S  0.36575401  0.82916300  0.62921837    -0.31100
H1939       H  0.38102817  0.86124312  0.66583434     0.09900
C1940       C  0.39177542  0.89885776  0.68114104     0.03100
C1941       C  0.40515217  0.90551651  0.71063281    -0.13400
C1942       C  0.42346780  0.90484789  0.69860548    -0.09100
C1943       C  0.42824966  0.89938644  0.65442646     0.06500
C1944       C  0.41498828  0.89268254  0.62525739    -0.14100
S1945       S  0.36840758  0.89871588  0.69840577    -0.31100
H1946       H  0.40150125  0.90992100  0.74440145     0.10800
S1947       S  0.45113606  0.90012414  0.63395587    -0.28200
H1948       H  0.41898334  0.88733341  0.59257768     0.08000
H1949       H  0.35344044  0.82370360  0.59541269     0.26400
H1950       H  0.37095040  0.90802800  0.73950329     0.21200
H1951       H  0.45605941  0.91528846  0.65984907     0.26500
H1952       H  0.38636051  0.91527277  0.57711079     0.15400
C1953       C  0.45544409  0.87717264  0.32555682    -0.11900
C1954       C  0.45761953  0.86329226  0.35754952     0.14600
C1955       C  0.47529421  0.85833686  0.37120935     0.01500
C1956       C  0.49023073  0.86741199  0.35297462    -0.16300
C1957       C  0.48800082  0.88172836  0.32215459    -0.11100
C1958       C  0.47032448  0.88634607  0.30765278     0.08300
C1959       C  0.44122285  0.85383464  0.37441195     0.09300
S1960       S  0.47969315  0.84106874  0.41303295    -0.25400
H1961       H  0.50368086  0.86376355  0.36446106     0.19600
S1962       S  0.46579939  0.90330642  0.26509804    -0.31100
H1963       H  0.44198471  0.88074576  0.31398160     0.09900
C1964       C  0.42776934  0.86299242  0.39925602     0.03100
C1965       C  0.41233146  0.85360574  0.41359728    -0.13400
C1966       C  0.41022443  0.83511972  0.40475696    -0.09100
C1967       C  0.42362273  0.82602799  0.37955398     0.06500
C1968       C  0.43888583  0.83545586  0.36459117    -0.14100
S1969       S  0.43073935  0.88633216  0.41526885    -0.31100
H1970       H  0.40222339  0.86048916  0.43363431     0.10800
S1971       S  0.42181852  0.80252454  0.36468980    -0.28200
H1972       H  0.44903450  0.82841757  0.34499246     0.08000
H1973       H  0.48102402  0.89924687  0.23857459     0.26400
H1974       H  0.41504713  0.88783914  0.44177319     0.21200
H1975       H  0.40290133  0.80272829  0.36016325     0.26500
H1976       H  0.46390770  0.84399882  0.43834923     0.15400
C1977       C  0.23652740  0.82360318  0.52007775    -0.11900
C1978       C  0.24713945  0.80792241  0.51975322     0.14600
C1979       C  0.23888611  0.79104093  0.52737421     0.01500
C1980       C  0.22037949  0.79025260  0.53619912    -0.16300
C1981       C  0.20965194  0.80591484  0.53643732    -0.11100
C1982       C  0.21786642  0.82274316  0.52725656     0.08300
C1983       C  0.26671314  0.80947712  0.51061930     0.09300
S1984       S  0.25114841  0.76999916  0.52595583    -0.25400
H1985       H  0.21432130  0.77723110  0.54300263     0.19600
S1986       S  0.20522471  0.84337939  0.52140191    -0.31100
H1987       H  0.24278103  0.83654894  0.51350617     0.09900
C1988       C  0.27308504  0.81418509  0.46716892     0.03100
C1989       C  0.29171891  0.81428793  0.45897900    -0.13400
C1990       C  0.30406757  0.80927218  0.49299705    -0.09100
C1991       C  0.29770676  0.80498876  0.53687435     0.06500
C1992       C  0.27907559  0.80529746  0.54530577    -0.14100
S1993       S  0.25745519  0.81874422  0.42125234    -0.31100
H1994       H  0.29666160  0.81734635  0.42529036     0.10800
S1995       S  0.31322603  0.79942656  0.58241126    -0.28200
H1996       H  0.27402333  0.80190020  0.57868078     0.08000
H1997       H  0.19128296  0.83534141  0.49592149     0.26400
H1998       H  0.27048065  0.82188574  0.38754100     0.21200
H1999       H  0.30011089  0.79467985  0.61470259     0.26500
H2000       H  0.26360710  0.77525341  0.49257373     0.15400
C2001       C  0.09437676  0.84081964  0.16008951    -0.11900
C2002       C  0.08334826  0.82872168  0.13608459     0.14600
C2003       C  0.06465185  0.83231933  0.13249480     0.01500
C2004       C  0.05747234  0.84783740  0.15289169    -0.16300
C2005       C  0.06859173  0.86016349  0.17610597    -0.11100
C2006       C  0.08725890  0.85633600  0.18024877     0.08300
C2007       C  0.09192267  0.81243168  0.11612463     0.09300
S2008       S  0.04935511  0.81791832  0.10151757    -0.25400
H2009       H  0.04314196  0.85055878  0.14957228     0.19600
S2010       S  0.10257510  0.87009449  0.21293215    -0.31100
H2011       H  0.10867893  0.83797016  0.16374347     0.09900
C2012       C  0.10472100  0.81403034  0.08104841     0.03100
C2013       C  0.11419490  0.79872835  0.06660981    -0.13400
C2014       C  0.11101595  0.78171127  0.08592140    -0.09100
C2015       C  0.09772284  0.77996027  0.11997476     0.06500
C2016       C  0.08828312  0.79531956  0.13457048    -0.14100
S2017       S  0.10882560  0.83556304  0.05416681    -0.31100
H2018       H  0.12420052  0.79999419  0.04006300     0.10800
S2019       S  0.09297191  0.75881393  0.14789965    -0.28200
H2020       H  0.07851251  0.79404846  0.16168521     0.08000
H2021       H  0.09034863  0.87289726  0.24862768     0.26400
H2022       H  0.12198079  0.82956101  0.02336381     0.21200
H2023       H  0.11093844  0.75260702  0.14839313     0.26500
H2024       H  0.06200422  0.81198022  0.06937239     0.15400
C2025       C  0.09665547  0.64510463  0.89113331    -0.11900
C2026       C  0.11338198  0.64870502  0.87093924     0.14600
C2027       C  0.11673703  0.64274115  0.82644497     0.01500
C2028       C  0.10251338  0.63554244  0.80106124    -0.16300
C2029       C  0.08506673  0.63387962  0.81956174    -0.11100
C2030       C  0.08255865  0.63743445  0.86623840     0.08300
C2031       C  0.12548227  0.66129427  0.89475944     0.09300
S2032       S  0.13836457  0.64533065  0.79921960    -0.25400
H2033       H  0.10488662  0.63238922  0.76565991     0.19600
S2034       S  0.06168006  0.63312409  0.89567321    -0.31100
H2035       H  0.09425288  0.64922274  0.92591029     0.09900
C2036       C  0.12616271  0.67957321  0.88173603     0.03100
C2037       C  0.13339732  0.69220355  0.91186277    -0.13400
C2038       C  0.13961027  0.68701730  0.95518292    -0.09100
C2039       C  0.14108848  0.66833711  0.96529404     0.06500
C2040       C  0.13363982  0.65575407  0.93535694    -0.14100
S2041       S  0.11575745  0.68725423  0.82945433    -0.31100
H2042       H  0.13274884  0.70636112  0.90297762     0.10800
S2043       S  0.15114595  0.65953260  0.01656187    -0.28200
H2044       H  0.13338163  0.64161686  0.94476310     0.08000
H2045       H  0.05724727  0.61769612  0.87016398     0.26400
H2046       H  0.12148974  0.70531171  0.83213117     0.21200
H2047       H  0.16609100  0.67124856  0.01485890     0.26500
H2048       H  0.14861467  0.64628884  0.83943759     0.15400
C2049       C  0.05316564  0.65097079  0.16156314    -0.11900
C2050       C  0.05341119  0.66983445  0.16535847     0.14600
C2051       C  0.03823546  0.67867975  0.18387758     0.01500
C2052       C  0.02349781  0.66849811  0.19915400    -0.16300
C2053       C  0.02311146  0.64958688  0.19499494    -0.11100
C2054       C  0.03836749  0.64077894  0.17635387     0.08300
C2055       C  0.06936527  0.67977404  0.14767576     0.09300
S2056       S  0.03649008  0.70290957  0.18728668    -0.25400
H2057       H  0.01190923  0.67552507  0.21293209     0.19600
S2058       S  0.04020729  0.61660859  0.17185382    -0.31100
H2059       H  0.06474549  0.64409179  0.14726271     0.09900
C2060       C  0.08177939  0.68875904  0.17634111     0.03100
C2061       C  0.09675162  0.69767659  0.15727680    -0.13400
C2062       C  0.09963225  0.69767898  0.11014245    -0.09100
C2063       C  0.08743536  0.68810722  0.08187793     0.06500
C2064       C  0.07242496  0.67954778  0.10080638    -0.14100
S2065       S  0.07884478  0.68848531  0.23715649    -0.31100
H2066       H  0.10615092  0.70481123  0.17902958     0.10800
S2067       S  0.09076773  0.68534211  0.02167708    -0.28200
H2068       H  0.06315523  0.67233590  0.07879698     0.08000
H2069       H  0.03308870  0.61326247  0.21527741     0.26400
H2070       H  0.09389167  0.69928439  0.24785344     0.21200
H2071       H  0.10945698  0.68233217  0.02568426     0.26500
H2072       H  0.04668369  0.70660615  0.14821955     0.15400
C2073       C  0.17920502  0.77992666  0.76728214    -0.11900
C2074       C  0.16449801  0.78529510  0.79384848     0.14600
C2075       C  0.15125012  0.79682534  0.77511872     0.01500
C2076       C  0.15224904  0.80166302  0.72941873    -0.16300
C2077       C  0.16629849  0.79538726  0.70179120    -0.11100
C2078       C  0.18032684  0.78494902  0.72137651     0.08300
C2079       C  0.16221794  0.77731318  0.83938819     0.09300
S2080       S  0.13212436  0.80489049  0.80699246    -0.25400
H2081       H  0.14148697  0.80977311  0.71487068     0.19600
S2082       S  0.19971523  0.77812687  0.68847215    -0.31100
H2083       H  0.18943384  0.77127749  0.78220243     0.09900
C2084       C  0.14973893  0.76327090  0.84644398     0.03100
C2085       C  0.14655803  0.75711627  0.89059038    -0.13400
C2086       C  0.15552141  0.76475374  0.92803419    -0.09100
C2087       C  0.16822275  0.77871395  0.92069175     0.06500
C2088       C  0.17164884  0.78462079  0.87636316    -0.14100
S2089       S  0.13786091  0.75318645  0.79912290    -0.31100
H2090       H  0.13707268  0.74620309  0.89598312     0.10800
S2091       S  0.17951185  0.79037236  0.96631637    -0.28200
H2092       H  0.18109683  0.79556418  0.87080170     0.08000
H2093       H  0.20931369  0.76986615  0.72421621     0.26400
H2094       H  0.12684964  0.74158135  0.82476604     0.21200
H2095       H  0.16422662  0.79094919  0.99452543     0.26500
H2096       H  0.14070609  0.80489681  0.84963260     0.15400
C2097       C  0.14149115  0.75780718  0.35374167    -0.11900
C2098       C  0.15871882  0.75116512  0.34379260     0.14600
C2099       C  0.17246076  0.75170940  0.37701243     0.01500
C2100       C  0.16877529  0.75942750  0.41918997    -0.16300
C2101       C  0.15164083  0.76657091  0.42875462    -0.11100
C2102       C  0.13771423  0.76539887  0.39593423     0.08300
C2103       C  0.16203260  0.74552967  0.29681150     0.09300
S2104       S  0.19492712  0.74315246  0.36736840    -0.25400
H2105       H  0.17947166  0.76022649  0.44436491     0.19600
S2106       S  0.11501743  0.77319163  0.40723968    -0.31100
H2107       H  0.13110091  0.75739859  0.32774681     0.09900
C2108       C  0.15357614  0.73013890  0.27862674     0.03100
C2109       C  0.15412191  0.72723511  0.23177753    -0.13400
C2110       C  0.16268705  0.73962019  0.20295989    -0.09100
C2111       C  0.17209431  0.75443205  0.22168347     0.06500
C2112       C  0.17156956  0.75728121  0.26843234    -0.14100
S2113       S  0.14151909  0.71464448  0.31492595    -0.31100
H2114       H  0.14707042  0.71579721  0.21727572     0.10800
S2115       S  0.18481784  0.77020453  0.18786562    -0.28200
H2116       H  0.17806919  0.76910996  0.28265175     0.08000
H2117       H  0.10689868  0.76626172  0.36769033     0.26400
H2118       H  0.13477664  0.70348881  0.28018795     0.21200
H2119       H  0.19054577  0.75738137  0.15585593     0.26500
H2120       H  0.19005928  0.73042496  0.33419700     0.15400
C2121       C  0.40947020  0.84675192  0.86627344    -0.11900
C2122       C  0.41916096  0.83428115  0.89273834     0.14600
C2123       C  0.43778879  0.83722875  0.90052772     0.01500
C2124       C  0.44626558  0.85224561  0.88101187    -0.16300
C2125       C  0.43652353  0.86479943  0.85483349    -0.11100
C2126       C  0.41784535  0.86190525  0.84749924     0.08300
C2127       C  0.40954595  0.81799518  0.90960570     0.09300
S2128       S  0.45138447  0.82261133  0.93579640    -0.25400
H2129       H  0.46053463  0.85435685  0.88723125     0.19600
S2130       S  0.40413128  0.87636821  0.81224548    -0.31100
H2131       H  0.39526166  0.84442359  0.85929600     0.09900
C2132       C  0.39430986  0.81946703  0.93796435     0.03100
C2133       C  0.38478500  0.80389059  0.95025463    -0.13400
C2134       C  0.39036268  0.78670473  0.93597686    -0.09100
C2135       C  0.40574093  0.78522131  0.90788299     0.06500
C2136       C  0.41511356  0.80083873  0.89504242    -0.14100
S2137       S  0.38734084  0.84109686  0.96010833    -0.31100
H2138       H  0.37308344  0.80507876  0.97194385     0.10800
S2139       S  0.41360421  0.76399234  0.88558195    -0.28200
H2140       H  0.42663411  0.79965302  0.87266555     0.08000
H2141       H  0.41707109  0.87750049  0.77760283     0.26400
H2142       H  0.37313156  0.83471873  0.98730761     0.21200
H2143       H  0.39624953  0.75683008  0.87799238     0.26500
H2144       H  0.43736081  0.81756146  0.96524147     0.15400
C2145       C  0.33661358  0.75768225  0.75768343    -0.11900
C2146       C  0.35089118  0.74958936  0.73406301     0.14600
C2147       C  0.36144370  0.73618374  0.75567793     0.01500
C2148       C  0.35801853  0.73180324  0.80100771    -0.16300
C2149       C  0.34434950  0.74058916  0.82522758    -0.11100
C2150       C  0.33321741  0.75328836  0.80309392     0.08300
C2151       C  0.35507714  0.75639472  0.68814337     0.09300
S2152       S  0.37991028  0.72477260  0.72810998    -0.25400
H2153       H  0.36670110  0.72216141  0.81821111     0.19600
S2154       S  0.31483820  0.76402833  0.83280642    -0.31100
H2155       H  0.32853365  0.76789745  0.74082869     0.09900
C2156       C  0.34314772  0.75360950  0.65153070     0.03100
C2157       C  0.34701412  0.76134956  0.60931850    -0.13400
C2158       C  0.36268974  0.77172077  0.60264564    -0.09100
C2159       C  0.37499756  0.77386166  0.63920125     0.06500
C2160       C  0.37088334  0.76645918  0.68162327    -0.14100
S2161       S  0.32308880  0.74002506  0.65846486    -0.31100
H2162       H  0.33757777  0.75953893  0.58150727     0.10800
S2163       S  0.39643377  0.78516325  0.63381001    -0.28200
H2164       H  0.38014074  0.76844017  0.70980387     0.08000
H2165       H  0.30775805  0.77346951  0.79525681     0.26400
H2166       H  0.31696839  0.74121514  0.61328420     0.21200
H2167       H  0.40050100  0.77734813  0.59155624     0.26500
H2168       H  0.37319602  0.72645646  0.68360151     0.15400
C2169       C  0.35869031  0.78632994  0.16363790    -0.11900
C2170       C  0.34298101  0.78083355  0.18607282     0.14600
C2171       C  0.32976339  0.77081664  0.16244898     0.01500
C2172       C  0.33319323  0.76533270  0.11798294    -0.16300
C2173       C  0.34938251  0.76998890  0.09626424    -0.11100
C2174       C  0.36191032  0.78127224  0.11881108     0.08300
C2175       C  0.34152696  0.78481367  0.23485262     0.09300
S2176       S  0.30861987  0.76411432  0.18758478    -0.25400
H2177       H  0.32340059  0.75686732  0.10078853     0.19600
S2178       S  0.38208064  0.78985213  0.09228475    -0.31100
H2179       H  0.36865969  0.79437397  0.18149787     0.09900
C2180       C  0.34387059  0.77115876  0.26767448     0.03100
C2181       C  0.34413941  0.77581277  0.31365329    -0.13400
C2182       C  0.34273081  0.79388295  0.32733169    -0.09100
C2183       C  0.33933266  0.80736826  0.29443391     0.06500
C2184       C  0.33903387  0.80272592  0.24850672    -0.14100
S2185       S  0.34791332  0.74804713  0.25101529    -0.31100
H2186       H  0.34645607  0.76544949  0.33894042     0.10800
S2187       S  0.33480576  0.83054318  0.30888779    -0.28200
H2188       H  0.33695011  0.81314225  0.22314726     0.08000
H2189       H  0.37428554  0.79151052  0.04887149     0.26400
H2190       H  0.34882663  0.74072257  0.29505414     0.21200
H2191       H  0.32570777  0.82647917  0.34950090     0.26500
H2192       H  0.30755240  0.77843628  0.21865455     0.15400
C2193       C  0.23489540  0.70606492  0.04780174    -0.11900
C2194       C  0.24346758  0.71995151  0.02370973     0.14600
C2195       C  0.23327334  0.73496900  0.00888590     0.01500
C2196       C  0.21507274  0.73624915  0.02047718    -0.16300
C2197       C  0.20650268  0.72263514  0.04556607    -0.11100
C2198       C  0.21655262  0.70730538  0.05919216     0.08300
C2199       C  0.26323176  0.71926099  0.01687768     0.09300
S2200       S  0.24273930  0.75310534  0.97561681    -0.25400
H2201       H  0.20745148  0.74795595  0.00934144     0.19600
S2202       S  0.20714046  0.68955284  0.09359053    -0.31100
H2203       H  0.24271213  0.69456379  0.05935459     0.09900
C2204       C  0.27473972  0.73132175  0.03997711     0.03100
C2205       C  0.29278171  0.73282627  0.02657019    -0.13400
C2206       C  0.29968183  0.72218234  0.99139140    -0.09100
C2207       C  0.28849103  0.70917060  0.97049257     0.06500
C2208       C  0.27035935  0.70779687  0.98360480    -0.14100
S2209       S  0.26635083  0.74499228  0.08605337    -0.31100
H2210       H  0.30155005  0.74251954  0.04308022     0.10800
S2211       S  0.29618452  0.69479435  0.92522344    -0.28200
H2212       H  0.26151881  0.69844075  0.96608314     0.08000
H2213       H  0.19692921  0.70114991  0.12120718     0.26400
H2214       H  0.28261829  0.75409924  0.09533530     0.21200
H2215       H  0.30780621  0.70751770  0.90535304     0.26500
H2216       H  0.25583356  0.74265581  0.95339072     0.15400
C2217       C  0.54458348  0.67338778  0.31013558    -0.11900
C2218       C  0.54901589  0.67483165  0.35631614     0.14600
C2219       C  0.53763711  0.66678862  0.38903650     0.01500
C2220       C  0.52263087  0.65679429  0.37471193    -0.16300
C2221       C  0.51832506  0.65521649  0.32851075    -0.11100
C2222       C  0.52926019  0.66385349  0.29592576     0.08300
C2223       C  0.56595987  0.68415553  0.36911069     0.09300
S2224       S  0.54160724  0.66862050  0.44936190    -0.25400
H2225       H  0.51417324  0.65026480  0.39979631     0.19600
S2226       S  0.52504904  0.66230276  0.23575767    -0.31100
H2227       H  0.55327085  0.67953991  0.28497114     0.09900
C2228       C  0.58110882  0.67447046  0.38491705     0.03100
C2229       C  0.59653239  0.68388844  0.39911274    -0.13400
C2230       C  0.59723564  0.70284987  0.39756944    -0.09100
C2231       C  0.58241579  0.71240722  0.37872217     0.06500
C2232       C  0.56690611  0.70297990  0.36523815    -0.14100
S2233       S  0.58076278  0.65010827  0.38723169    -0.31100
H2234       H  0.60784576  0.67643336  0.41309340     0.10800
S2235       S  0.58251885  0.73649884  0.37013686    -0.28200
H2236       H  0.55541800  0.71037573  0.35186565     0.08000
H2237       H  0.50615950  0.66327185  0.23856127     0.26400
H2238       H  0.59795315  0.64784251  0.40697487     0.21200
H2239       H  0.60095202  0.73742694  0.35880953     0.26500
H2240       H  0.55034769  0.68543677  0.44794165     0.15400
C2241       C  0.44058380  0.70369571  0.38052526    -0.11900
C2242       C  0.42441468  0.70276538  0.40486297     0.14600
C2243       C  0.41674260  0.68573079  0.41441679     0.01500
C2244       C  0.42512280  0.67008674  0.39811661    -0.16300
C2245       C  0.44082714  0.67105428  0.37165092    -0.11100
C2246       C  0.44898243  0.68808919  0.36446499     0.08300
C2247       C  0.41544962  0.71986484  0.41731874     0.09300
S2248       S  0.39606670  0.68299082  0.44592159    -0.25400
H2249       H  0.41879449  0.65712650  0.40419577     0.19600
S2250       S  0.47039490  0.69076226  0.33653349    -0.31100
H2251       H  0.44668260  0.71672834  0.37389418     0.09900
C2252       C  0.41659463  0.72710818  0.46136850     0.03100
C2253       C  0.40744167  0.74321826  0.47125363    -0.13400
C2254       C  0.39714614  0.75220425  0.43790028    -0.09100
C2255       C  0.39666647  0.74517388  0.39329090     0.06500
C2256       C  0.40569694  0.72907795  0.38367055    -0.14100
S2257       S  0.42952128  0.71573514  0.50496399    -0.31100
H2258       H  0.40783510  0.74853698  0.50543414     0.10800
S2259       S  0.38528283  0.75616622  0.34665212    -0.28200
H2260       H  0.40512679  0.72364269  0.34957478     0.08000
H2261       H  0.47822758  0.67599550  0.35932220     0.26400
H2262       H  0.42655577  0.72847542  0.53947666     0.21200
H2263       H  0.38786962  0.77383030  0.36249086     0.26500
H2264       H  0.38825927  0.69968759  0.43469385     0.15400
C2265       C  0.37177095  0.66107568  0.10484130    -0.11900
C2266       C  0.38399457  0.66614694  0.13900308     0.14600
C2267       C  0.38892765  0.68445755  0.14323981     0.01500
C2268       C  0.38195776  0.69712271  0.11282221    -0.16300
C2269       C  0.37059269  0.69203453  0.07663256    -0.11100
C2270       C  0.36478318  0.67382288  0.07413035     0.08300
C2271       C  0.39273330  0.65215819  0.16748599     0.09300
S2272       S  0.40507688  0.69246294  0.18470640    -0.25400
H2273       H  0.38652693  0.71094644  0.11591681     0.19600
S2274       S  0.34849605  0.66592097  0.03313413    -0.31100
H2275       H  0.36779525  0.64706172  0.10184458     0.09900
C2276       C  0.39033295  0.65164540  0.21489452     0.03100
C2277       C  0.40286551  0.64225636  0.24186397    -0.13400
C2278       C  0.41757392  0.63323639  0.22209470    -0.09100
C2279       C  0.41822997  0.63156434  0.17442267     0.06500
C2280       C  0.40595601  0.64122481  0.14755367    -0.14100
S2281       S  0.37220485  0.66411451  0.24111256    -0.31100
H2282       H  0.40206279  0.64326690  0.27846185     0.10800
S2283       S  0.43473403  0.61777661  0.14619560    -0.28200
H2284       H  0.40743737  0.64110830  0.11097619     0.08000
H2285       H  0.33746747  0.68133848  0.03633228     0.26400
H2286       H  0.37543050  0.65810437  0.28575371     0.21200
H2287       H  0.43635325  0.60535710  0.18217155     0.26500
H2288       H  0.41666429  0.67747099  0.18226730     0.15400
C2289       C  0.43977948  0.32919146  0.16932854    -0.11900
C2290       C  0.42794613  0.33078964  0.13239542     0.14600
C2291       C  0.42582358  0.34769974  0.11094426     0.01500
C2292       C  0.43450612  0.36286326  0.12897162    -0.16300
C2293       C  0.44578409  0.36151278  0.16740750    -0.11100
C2294       C  0.44907179  0.34415257  0.18625305     0.08300
C2295       C  0.41693127  0.31495593  0.11944107     0.09300
S2296       S  0.41196877  0.35081453  0.06101235    -0.25400
H2297       H  0.43204897  0.37588606  0.11334086     0.19600
S2298       S  0.46502343  0.33986085  0.23139033    -0.31100
H2299       H  0.44168433  0.31614399  0.18536479     0.09900
C2300       C  0.42466862  0.29948320  0.09986855     0.03100
C2301       C  0.41353607  0.28493269  0.08797627    -0.13400
C2302       C  0.39476988  0.28541771  0.09543157    -0.09100
C2303       C  0.38715181  0.30100604  0.11568994     0.06500
C2304       C  0.39832852  0.31542686  0.12772559    -0.14100
S2305       S  0.44864030  0.29841647  0.08899126    -0.31100
H2306       H  0.41953274  0.27307359  0.07286198     0.10800
S2307       S  0.36333706  0.30384915  0.12595403    -0.28200
H2308       H  0.39243198  0.32730252  0.14315751     0.08000
H2309       H  0.47839027  0.35106586  0.21281292     0.26400
H2310       H  0.44893052  0.28069533  0.07201538     0.21200
H2311       H  0.35820521  0.29839851  0.08206029     0.26500
H2312       H  0.41435160  0.33329721  0.04379497     0.15400
C2313       C  0.39184253  0.39285730  0.32852421    -0.11900
C2314       C  0.39646925  0.38827298  0.37328949     0.14600
C2315       C  0.41398356  0.39238492  0.38950912     0.01500
C2316       C  0.42655998  0.40015652  0.36035561    -0.16300
C2317       C  0.42259617  0.40309864  0.31420687    -0.11100
C2318       C  0.40456986  0.40041941  0.29899581     0.08300
C2319       C  0.38391930  0.37698383  0.40017272     0.09300
S2320       S  0.42197192  0.38616774  0.44531272    -0.25400
H2321       H  0.44010850  0.40244907  0.37318509     0.19600
S2322       S  0.39701698  0.40530870  0.24209661    -0.31100
H2323       H  0.37838287  0.38987953  0.31600826     0.09900
C2324       C  0.37759540  0.38229257  0.44314740     0.03100
C2325       C  0.37065492  0.36917231  0.47271130    -0.13400
C2326       C  0.36933131  0.35099515  0.45929293    -0.09100
C2327       C  0.37254371  0.34662090  0.41322510     0.06500
C2328       C  0.38027620  0.35950047  0.38465899    -0.14100
S2329       S  0.37932113  0.40550517  0.46109213    -0.31100
H2330       H  0.36749497  0.37290481  0.50727831     0.10800
S2331       S  0.36762709  0.32483244  0.38898011    -0.28200
H2332       H  0.38431095  0.35558723  0.35074729     0.08000
H2333       H  0.40490460  0.42258145  0.24152865     0.26400
H2334       H  0.37023636  0.40335167  0.50259081     0.21200
H2335       H  0.35230392  0.32188884  0.41602891     0.26500
H2336       H  0.41358934  0.36919022  0.44513337     0.15400
C2337       C  0.44540394  0.49382178  0.28016760    -0.11900
C2338       C  0.45410951  0.50758175  0.25593060     0.14600
C2339       C  0.46447376  0.50307835  0.21737516     0.01500
C2340       C  0.46590091  0.48500051  0.20417304    -0.16300
C2341       C  0.45741795  0.47116491  0.22876082    -0.11100
C2342       C  0.44683990  0.47574429  0.26690645     0.08300
C2343       C  0.45319185  0.52624892  0.27364220     0.09300
S2344       S  0.47676954  0.51953454  0.18440857    -0.25400
H2345       H  0.47421349  0.48162567  0.17519798     0.19600
S2346       S  0.43645723  0.45900392  0.30265025    -0.31100
H2347       H  0.43770789  0.49717771  0.31021136     0.09900
C2348       C  0.44307107  0.53987572  0.25179618     0.03100
C2349       C  0.44395487  0.55766999  0.26805956    -0.13400
C2350       C  0.45477171  0.56205549  0.30575056    -0.09100
C2351       C  0.46399545  0.54808551  0.32915317     0.06500
C2352       C  0.46320848  0.53044280  0.31265489    -0.14100
S2353       S  0.42944527  0.53467058  0.20258230    -0.31100
H2354       H  0.43693259  0.56833778  0.25004829     0.10800
S2355       S  0.47702693  0.55183032  0.38022228    -0.28200
H2356       H  0.47073142  0.51990539  0.32994920     0.08000
H2357       H  0.42542793  0.45226688  0.26757693     0.26400
H2358       H  0.42218677  0.55205478  0.19652336     0.21200
H2359       H  0.46604231  0.56584798  0.39666927     0.26500
H2360       H  0.47941735  0.53223564  0.21910477     0.15400
C2361       C  0.58594733  0.73268282  0.96422389    -0.11900
C2362       C  0.58849460  0.72459111  0.92174405     0.14600
C2363       C  0.60098270  0.73220724  0.89103472     0.01500
C2364       C  0.61156496  0.74685995  0.90468130    -0.16300
C2365       C  0.60949700  0.75454914  0.94774653    -0.11100
C2366       C  0.59637174  0.74752538  0.97761778     0.08300
C2367       C  0.57922216  0.70735441  0.91180444     0.09300
S2368       S  0.60426112  0.72364097  0.83436060    -0.25400
H2369       H  0.62146425  0.75237146  0.88145136     0.19600
S2370       S  0.59314918  0.75615525  0.03414797    -0.31100
H2371       H  0.57637106  0.72688615  0.98784793     0.09900
C2372       C  0.58880948  0.69095459  0.91144948     0.03100
C2373       C  0.58003923  0.67513311  0.89765704    -0.13400
C2374       C  0.56181686  0.67528911  0.88377408    -0.09100
C2375       C  0.55184496  0.69158381  0.88838373     0.06500
C2376       C  0.56072582  0.70740634  0.90176035    -0.14100
S2377       S  0.61238162  0.69024870  0.92763776    -0.31100
H2378       H  0.58772496  0.66275526  0.89573158     0.10800
S2379       S  0.52788761  0.69339465  0.87779168    -0.28200
H2380       H  0.55323890  0.71994345  0.90355271     0.08000
H2381       H  0.61163788  0.75865952  0.04310022     0.26400
H2382       H  0.61477125  0.67154012  0.92257790     0.21200
H2383       H  0.52363572  0.67680017  0.89825037     0.26500
H2384       H  0.58674290  0.71666673  0.82870293     0.15400
C2385       C  0.60595876  0.66190015  0.69765222    -0.11900
C2386       C  0.60788507  0.65121649  0.65883888     0.14600
C2387       C  0.60012420  0.63378795  0.65791830     0.01500
C2388       C  0.58922152  0.62816381  0.69415047    -0.16300
C2389       C  0.58622169  0.63954165  0.73134689    -0.11100
C2390       C  0.59537629  0.65619795  0.73388637     0.08300
C2391       C  0.61581201  0.65999792  0.61846923     0.09300
S2392       S  0.60273603  0.61867188  0.61050960    -0.25400
H2393       H  0.58223522  0.61535185  0.69208561     0.19600
S2394       S  0.59340443  0.67109456  0.78183004    -0.31100
H2395       H  0.61202969  0.67519516  0.69879667     0.09900
C2396       C  0.60461346  0.66585317  0.58250631     0.03100
C2397       C  0.61162233  0.67757511  0.54987810    -0.13400
C2398       C  0.62935663  0.68418493  0.55315043    -0.09100
C2399       C  0.64077342  0.67782638  0.58815417     0.06500
C2400       C  0.63394083  0.66558977  0.62007864    -0.14100
S2401       S  0.58085234  0.66018046  0.58068308    -0.31100
H2402       H  0.60288823  0.68249052  0.52292668     0.10800
S2403       S  0.66340445  0.68610141  0.59668684    -0.28200
H2404       H  0.64242311  0.66139404  0.64828252     0.08000
H2405       H  0.59269854  0.65694921  0.81358215     0.26400
H2406       H  0.57706525  0.66780269  0.53789355     0.21200
H2407       H  0.65951257  0.70411324  0.58515081     0.26500
H2408       H  0.61876809  0.62635742  0.59394673     0.15400
C2409       C  0.41961997  0.67849377  0.87243334    -0.11900
C2410       C  0.43697661  0.68461094  0.88351256     0.14600
C2411       C  0.43900120  0.70057166  0.90900838     0.01500
C2412       C  0.42364978  0.70953673  0.92476528    -0.16300
C2413       C  0.40616769  0.70311409  0.91524397    -0.11100
C2414       C  0.40423237  0.68736827  0.88837924     0.08300
C2415       C  0.45262782  0.67353762  0.86985479     0.09300
S2416       S  0.46076107  0.71000593  0.92328856    -0.25400
H2417       H  0.42541776  0.72165493  0.94483788     0.19600
S2418       S  0.38276015  0.67701195  0.87598754    -0.31100
H2419       H  0.41807097  0.66621449  0.85285717     0.09900
C2420       C  0.46225501  0.66296468  0.90162046     0.03100
C2421       C  0.47715343  0.65282552  0.88716597    -0.13400
C2422       C  0.48258294  0.65303310  0.84156488    -0.09100
C2423       C  0.47241391  0.66312981  0.80955798     0.06500
C2424       C  0.45768311  0.67336096  0.82413486    -0.14100
S2425       S  0.45545286  0.66224108  0.96042463    -0.31100
H2426       H  0.48481668  0.64497468  0.91158725     0.10800
S2427       S  0.47704222  0.66301683  0.74948075    -0.28200
H2428       H  0.45001609  0.68119368  0.79962068     0.08000
H2429       H  0.37709254  0.67719028  0.92153535     0.26400
H2430       H  0.46964455  0.65119146  0.97603039     0.21200
H2431       H  0.48173450  0.64463672  0.74780159     0.26500
H2432       H  0.47008720  0.70315911  0.88561159     0.15400
C2433       C  0.52201356  0.62146479  0.03139343    -0.11900
C2434       C  0.52097351  0.60437634  0.05176365     0.14600
C2435       C  0.52409697  0.58880854  0.02524443     0.01500
C2436       C  0.52795641  0.59075041  0.97903984    -0.16300
C2437       C  0.52942072  0.60790711  0.95940322    -0.11100
C2438       C  0.52639685  0.62341542  0.98583500     0.08300
C2439       C  0.51503786  0.60359729  0.09952917     0.09300
S2440       S  0.52373939  0.56625623  0.04829672    -0.25400
H2441       H  0.53028184  0.57885374  0.95852329     0.19600
S2442       S  0.52737884  0.64606376  0.96333650    -0.31100
H2443       H  0.51903693  0.63344324  0.05106122     0.09900
C2444       C  0.52385458  0.61384150  0.13332134     0.03100
C2445       C  0.51555844  0.61607045  0.17536088    -0.13400
C2446       C  0.49899731  0.60783939  0.18476931    -0.09100
C2447       C  0.49101595  0.59613604  0.15276897     0.06500
C2448       C  0.49896909  0.59445977  0.11004782    -0.14100
S2449       S  0.54551249  0.62431788  0.12289671    -0.31100
H2450       H  0.52180520  0.62451456  0.20091467     0.10800
S2451       S  0.47056040  0.58345000  0.16287211    -0.28200
H2452       H  0.49217710  0.58656034  0.08420386     0.08000
H2453       H  0.52090697  0.64186446  0.91974559     0.26400
H2454       H  0.54760243  0.63229940  0.16588988     0.21200
H2455       H  0.46589088  0.59036485  0.20547148     0.26500
H2456       H  0.52914201  0.57112189  0.09242360     0.15400
C2457       C  0.49459451  0.59984276  0.62577035    -0.11900
C2458       C  0.49541119  0.61381063  0.59395123     0.14600
C2459       C  0.50307829  0.63055044  0.60581320     0.01500
C2460       C  0.50968725  0.63299354  0.64968659    -0.16300
C2461       C  0.50915825  0.61895020  0.68169691    -0.11100
C2462       C  0.50162607  0.60211837  0.66929898     0.08300
C2463       C  0.48866090  0.61039118  0.54812170     0.09300
S2464       S  0.50473781  0.64931185  0.56683214    -0.25400
H2465       H  0.51530019  0.64599665  0.65885782     0.19600
S2466       S  0.50165829  0.58270063  0.70603399    -0.31100
H2467       H  0.48890228  0.58692417  0.61612215     0.09900
C2468       C  0.49943644  0.60133461  0.51630967     0.03100
C2469       C  0.49350083  0.60024346  0.47141862    -0.13400
C2470       C  0.47703859  0.60804279  0.45796480    -0.09100
C2471       C  0.46580102  0.61618704  0.49073672     0.06500
C2472       C  0.47182684  0.61738668  0.53551295    -0.14100
S2473       S  0.52129831  0.59239859  0.53219482    -0.31100
H2474       H  0.50202008  0.59390509  0.44625203     0.10800
S2475       S  0.44467084  0.62692605  0.47689236    -0.28200
H2476       H  0.46364795  0.62433906  0.56041249     0.08000
H2477       H  0.52019219  0.58437347  0.71569610     0.26400
H2478       H  0.52580714  0.58538617  0.48937706     0.21200
H2479       H  0.43692029  0.61097142  0.45991481     0.26500
H2480       H  0.50652585  0.63911638  0.52695951     0.15400
C2481       C  0.44202943  0.35280214  0.59263077    -0.11900
C2482       C  0.44461929  0.35614854  0.63889520     0.14600
C2483       C  0.43081354  0.35152031  0.66976586     0.01500
C2484       C  0.41490898  0.34335066  0.65375342    -0.16300
C2485       C  0.41240399  0.33958246  0.60741106    -0.11100
C2486       C  0.42607804  0.34495440  0.57650025     0.08300
C2487       C  0.46140587  0.36549190  0.65324504     0.09300
S2488       S  0.43263050  0.35576321  0.72987551    -0.25400
H2489       H  0.40458453  0.33965675  0.67783265     0.19600
S2490       S  0.42370397  0.34332993  0.51574015    -0.31100
H2491       H  0.45235084  0.35683930  0.56868773     0.09900
C2492       C  0.47791907  0.35618934  0.65797027     0.03100
C2493       C  0.49346522  0.36561624  0.67181030    -0.13400
C2494       C  0.49287876  0.38423605  0.68074239    -0.09100
C2495       C  0.47619260  0.39345026  0.67602023     0.06500
C2496       C  0.46077708  0.38404818  0.66184608    -0.14100
S2497       S  0.47907112  0.33224679  0.64719641    -0.31100
H2498       H  0.50614945  0.35848882  0.67553108     0.10800
S2499       S  0.47331607  0.41690419  0.69022107    -0.28200
H2500       H  0.44806215  0.39117797  0.65838633     0.08000
H2501       H  0.40580899  0.34976460  0.51539036     0.26400
H2502       H  0.49756363  0.33015685  0.65709246     0.21200
H2503       H  0.48344260  0.41575765  0.73065685     0.26500
H2504       H  0.45152461  0.35426368  0.73274002     0.15400
C2505       C  0.52111944  0.44785068  0.51733765    -0.11900
C2506       C  0.52585127  0.43405821  0.48723163     0.14600
C2507       C  0.53837475  0.42075016  0.50099120     0.01500
C2508       C  0.54493675  0.42082625  0.54547668    -0.16300
C2509       C  0.53938340  0.43397563  0.57674823    -0.11100
C2510       C  0.52790155  0.44808653  0.56176522     0.08300
C2511       C  0.51613713  0.43263863  0.44360793     0.09300
S2512       S  0.54542405  0.40250649  0.46459230    -0.25400
H2513       H  0.55371629  0.40991322  0.55634091     0.19600
S2514       S  0.52126939  0.46662952  0.59754291    -0.31100
H2515       H  0.51166828  0.45819549  0.50653790     0.09900
C2516       C  0.50187418  0.42026906  0.43843258     0.03100
C2517       C  0.49431410  0.41757618  0.39542589    -0.13400
C2518       C  0.50087459  0.42680094  0.35718820    -0.09100
C2519       C  0.51484374  0.43965887  0.36286940     0.06500
C2520       C  0.52209132  0.44265831  0.40619567    -0.14100
S2521       S  0.49356655  0.40761577  0.48652687    -0.31100
H2522       H  0.48342704  0.40794537  0.39138631     0.10800
S2523       S  0.52508445  0.45147773  0.31611825    -0.28200
H2524       H  0.53316541  0.45208188  0.41036020     0.08000
H2525       H  0.53778197  0.46748368  0.62133354     0.26400
H2526       H  0.48181041  0.39630068  0.46203006     0.21200
H2527       H  0.52680783  0.43596178  0.28902756     0.26500
H2528       H  0.54319565  0.41172071  0.42323633     0.15400
C2529       C  0.49649920  0.42481788  0.90752916    -0.11900
C2530       C  0.50338832  0.41334705  0.94116584     0.14600
C2531       C  0.51664220  0.40049213  0.92959927     0.01500
C2532       C  0.52331051  0.40002565  0.88527761    -0.16300
C2533       C  0.51682774  0.41184536  0.85136464    -0.11100
C2534       C  0.50308958  0.42438622  0.86313182     0.08300
C2535       C  0.49734385  0.41610461  0.98844367     0.09300
S2536       S  0.52565414  0.38434373  0.96971856    -0.25400
H2537       H  0.53361638  0.39016135  0.87732827     0.19600
S2538       S  0.49350137  0.44060088  0.82426859    -0.31100
H2539       H  0.48630624  0.43468713  0.91641603     0.09900
C2540       C  0.50904777  0.42336765  0.02146307     0.03100
C2541       C  0.50283885  0.42575376  0.06584366    -0.13400
C2542       C  0.48497044  0.42152966  0.07800403    -0.09100
C2543       C  0.47301643  0.41505292  0.04399764     0.06500
C2544       C  0.47940185  0.41223281  0.99989475    -0.14100
S2545       S  0.53177464  0.43007949  0.00688462    -0.31100
H2546       H  0.51202324  0.43096551  0.09132406     0.10800
S2547       S  0.44978229  0.40938202  0.05469762    -0.28200
H2548       H  0.47031208  0.40696515  0.97419814     0.08000
H2549       H  0.51033423  0.44819354  0.81334966     0.26400
H2550       H  0.53685826  0.43639283  0.05008144     0.21200
H2551       H  0.44532396  0.42702939  0.06819311     0.26500
H2552       H  0.51042015  0.38374263  0.99798582     0.15400
C2553       C  0.56995542  0.53934047  0.78868012    -0.11900
C2554       C  0.55518450  0.52815859  0.77853119     0.14600
C2555       C  0.53768104  0.53566101  0.77776313     0.01500
C2556       C  0.53526097  0.55390764  0.78791614    -0.16300
C2557       C  0.54995325  0.56532399  0.79795722    -0.11100
C2558       C  0.56758967  0.55781905  0.79770833     0.08300
C2559       C  0.55810807  0.50868728  0.76915590     0.09300
S2560       S  0.51779421  0.52261354  0.76432802    -0.25400
H2561       H  0.52161123  0.55919464  0.78798415     0.19600
S2562       S  0.58764901  0.57105685  0.80687778    -0.31100
H2563       H  0.58345292  0.53367065  0.78889714     0.09900
C2564       C  0.56395830  0.50265336  0.72627771     0.03100
C2565       C  0.56377220  0.48409025  0.71645619    -0.13400
C2566       C  0.55778202  0.47145294  0.74865968    -0.09100
C2567       C  0.55327075  0.47747378  0.79270091     0.06500
C2568       C  0.55325238  0.49598000  0.80225614    -0.14100
S2569       S  0.57024340  0.51870470  0.68295681    -0.31100
H2570       H  0.56725782  0.47949792  0.68272411     0.10800
S2571       S  0.54743525  0.46219855  0.83808652    -0.28200
H2572       H  0.54901635  0.50056413  0.83547093     0.08000
H2573       H  0.58201411  0.58515759  0.77806213     0.26400
H2574       H  0.57452202  0.50600678  0.64924920     0.21200
H2575       H  0.55805950  0.44773140  0.82259255     0.26500
H2576       H  0.52607911  0.51140933  0.73209449     0.15400
C2577       C  0.61499872  0.23032596  0.15113194    -0.11900
C2578       C  0.60268745  0.22291940  0.11999254     0.14600
C2579       C  0.59917034  0.23209460  0.07890187     0.01500
C2580       C  0.60804159  0.24835116  0.06976305    -0.16300
C2581       C  0.62067823  0.25567081  0.10037904    -0.11100
C2582       C  0.62389205  0.24661742  0.14207828     0.08300
C2583       C  0.59304377  0.20612339  0.13239925     0.09300
S2584       S  0.58377033  0.22361939  0.03637188    -0.25400
H2585       H  0.60545874  0.25503490  0.03762022     0.19600
S2586       S  0.63851780  0.25539152  0.18595713    -0.31100
H2587       H  0.61743427  0.22349890  0.18316613     0.09900
C2588       C  0.60180311  0.18923282  0.13236612     0.03100
C2589       C  0.59230609  0.17378267  0.14616895    -0.13400
C2590       C  0.57429092  0.17495726  0.16060357    -0.09100
C2591       C  0.56535324  0.19179920  0.15855479     0.06500
C2592       C  0.57482671  0.20717602  0.14483203    -0.14100
S2593       S  0.62514321  0.18743461  0.11540580    -0.31100
H2594       H  0.59920088  0.16091701  0.14804701     0.10800
S2595       S  0.54181650  0.19443855  0.17236222    -0.28200
H2596       H  0.56798891  0.22010408  0.14408377     0.08000
H2597       H  0.63343545  0.27351527  0.17943908     0.26400
H2598       H  0.62658324  0.16860765  0.12023918     0.21200
H2599       H  0.53687210  0.17726706  0.15644803     0.26500
H2600       H  0.58642859  0.20522228  0.04591304     0.15400
C2601       C  0.61358205  0.37668941  0.84765635    -0.11900
C2602       C  0.61820843  0.38991113  0.87941694     0.14600
C2603       C  0.61235781  0.40785832  0.87260185     0.01500
C2604       C  0.60078969  0.41181379  0.83595879    -0.16300
C2605       C  0.59516217  0.39819164  0.80590494    -0.11100
C2606       C  0.60237736  0.38061833  0.81094193     0.08300
C2607       C  0.62676059  0.38338646  0.92174369     0.09300
S2608       S  0.61848578  0.42595576  0.91044851    -0.25400
H2609       H  0.59552896  0.42537650  0.83211882     0.19600
S2610       S  0.59776890  0.36245742  0.77200825    -0.31100
H2611       H  0.61821838  0.36293364  0.85250979     0.09900
C2612       C  0.61599577  0.37989340  0.96005589     0.03100
C2613       C  0.62220207  0.36775659  0.99292722    -0.13400
C2614       C  0.63915876  0.35945354  0.98917291    -0.09100
C2615       C  0.65084789  0.36473846  0.95382244     0.06500
C2616       C  0.64434957  0.37632072  0.91982296    -0.14100
S2617       S  0.59341409  0.38896975  0.96450427    -0.31100
H2618       H  0.61325831  0.36373290  0.02009835     0.10800
S2619       S  0.67318243  0.35554729  0.94720563    -0.28200
H2620       H  0.65260960  0.37894384  0.89024677     0.08000
H2621       H  0.59725586  0.37381830  0.73400857     0.26400
H2622       H  0.59065946  0.38410522  0.01016294     0.21200
H2623       H  0.67828415  0.35852108  0.99257653     0.26500
H2624       H  0.63399479  0.41764610  0.92860501     0.15400
C2625       C  0.53991487  0.35753589  0.17032602    -0.11900
C2626       C  0.55569944  0.36056059  0.19578652     0.14600
C2627       C  0.55535328  0.37305697  0.23186851     0.01500
C2628       C  0.53956847  0.38282927  0.24033670    -0.16300
C2629       C  0.52389957  0.38004086  0.21437113    -0.11100
C2630       C  0.52404899  0.36717301  0.17909458     0.08300
C2631       C  0.57277425  0.35229261  0.18013636     0.09300
S2632       S  0.57460017  0.37710307  0.26818561    -0.25400
H2633       H  0.53943776  0.39257006  0.26774559     0.19600
S2634       S  0.50490700  0.36329725  0.14220287    -0.31100
H2635       H  0.54020528  0.34817620  0.14211371     0.09900
C2636       C  0.57577816  0.33354830  0.18201765     0.03100
C2637       C  0.59149266  0.32633004  0.16262278    -0.13400
C2638       C  0.60446275  0.33753395  0.14217342    -0.09100
C2639       C  0.60171508  0.35644739  0.14247958     0.06500
C2640       C  0.58585562  0.36352908  0.16078176    -0.14100
S2641       S  0.55966307  0.31888061  0.20933609    -0.31100
H2642       H  0.59360342  0.31188172  0.16287609     0.10800
S2643       S  0.61712802  0.37223354  0.11702032    -0.28200
H2644       H  0.58351787  0.37794955  0.15923012     0.08000
H2645       H  0.49841057  0.38112897  0.14266004     0.26400
H2646       H  0.56943814  0.30276795  0.20370402     0.21200
H2647       H  0.63125306  0.36783225  0.14718632     0.26500
H2648       H  0.58218893  0.35980789  0.26365427     0.15400
C2649       C  0.77843109  0.33069810  0.01113546    -0.11900
C2650       C  0.76701875  0.31569122  0.01524419     0.14600
C2651       C  0.77419108  0.29822188  0.00940815     0.01500
C2652       C  0.79232629  0.29615281  0.99786660    -0.16300
C2653       C  0.80383810  0.31111016  0.99323407    -0.11100
C2654       C  0.79680936  0.32858269  0.00117133     0.08300
C2655       C  0.74756932  0.31842603  0.02421452     0.09300
S2656       S  0.76090175  0.27800150  0.01624032    -0.25400
H2657       H  0.79745629  0.28264720  0.99225872     0.19600
S2658       S  0.81064686  0.34854553  0.00135282    -0.31100
H2659       H  0.77301234  0.34411927  0.01626316     0.09900
C2660       C  0.74131118  0.32413045  0.06696637     0.03100
C2661       C  0.72268906  0.32410993  0.07567160    -0.13400
C2662       C  0.71028214  0.31831020  0.04258695    -0.09100
C2663       C  0.71656656  0.31380528  0.99878028     0.06500
C2664       C  0.73510644  0.31384046  0.99019742    -0.14100
S2665       S  0.75704584  0.32990000  0.11165734    -0.31100
H2666       H  0.71787282  0.32747557  0.10925383     0.10800
S2667       S  0.70171438  0.30764861  0.95257195    -0.28200
H2668       H  0.73992552  0.30975842  0.95708631     0.08000
H2669       H  0.82492085  0.34028747  0.02526291     0.26400
H2670       H  0.74410018  0.33578176  0.14316439     0.21200
H2671       H  0.68697038  0.31798534  0.96737621     0.26500
H2672       H  0.74981522  0.28477935  0.05089866     0.15400
C2673       C  0.91209711  0.22125888  0.95481050    -0.11900
C2674       C  0.91193404  0.21593772  0.90919465     0.14600
C2675       C  0.90198930  0.22623061  0.87722019     0.01500
C2676       C  0.89258183  0.24160749  0.89158179    -0.16300
C2677       C  0.89281659  0.24702257  0.93722762    -0.11100
C2678       C  0.90258012  0.23653449  0.96921421     0.08300
C2679       C  0.92245563  0.19975659  0.89601599     0.09300
S2680       S  0.90118875  0.22092409  0.81744447    -0.25400
H2681       H  0.88519210  0.24955590  0.86676568     0.19600
S2682       S  0.90286608  0.24147347  0.02912916    -0.31100
H2683       H  0.91959697  0.21333915  0.97947087     0.09900
C2684       C  0.94022841  0.20120804  0.87960248     0.03100
C2685       C  0.94929422  0.18566878  0.86468218    -0.13400
C2686       C  0.94098594  0.16861064  0.86602452    -0.09100
C2687       C  0.92322336  0.16723361  0.88338176     0.06500
C2688       C  0.91431294  0.18272702  0.89881614    -0.14100
S2689       S  0.95124706  0.22291478  0.87730210    -0.31100
H2690       H  0.96286983  0.18681741  0.85144269     0.10800
S2691       S  0.91061105  0.14646143  0.88329252    -0.28200
H2692       H  0.90060125  0.18163231  0.91127937     0.08000
H2693       H  0.88453514  0.24639662  0.03111923     0.26400
H2694       H  0.96795996  0.21666389  0.86110431     0.21200
H2695       H  0.91543343  0.14188575  0.83864069     0.26500
H2696       H  0.90461141  0.20236076  0.82118624     0.15400
C2697       C  0.90007125  0.37142010  0.07949592    -0.11900
C2698       C  0.88866858  0.37519927  0.11601548     0.14600
C2699       C  0.87080526  0.36846405  0.11568895     0.01500
C2700       C  0.86551758  0.35631013  0.08164459    -0.16300
C2701       C  0.87767812  0.35116351  0.04761805    -0.11100
C2702       C  0.89468631  0.35971454  0.04513104     0.08300
C2703       C  0.89722900  0.38310956  0.15677392     0.09300
S2704       S  0.85471694  0.37397679  0.15928258    -0.25400
H2705       H  0.85228640  0.35010838  0.08319331     0.19600
S2706       S  0.91029607  0.35581802  0.99946000    -0.31100
H2707       H  0.91367000  0.37683768  0.07905929     0.09900
C2708       C  0.90180091  0.37191694  0.19386542     0.03100
C2709       C  0.91384471  0.37825911  0.22674759    -0.13400
C2710       C  0.92169588  0.39539774  0.22308541    -0.09100
C2711       C  0.91645142  0.40698544  0.18737159     0.06500
C2712       C  0.90415788  0.40074400  0.15464344    -0.14100
S2713       S  0.89401756  0.34881861  0.19698198    -0.31100
H2714       H  0.91791742  0.36947253  0.25438858     0.10800
S2715       S  0.92611778  0.42909653  0.17956751    -0.28200
H2716       H  0.90091602  0.40921159  0.12570470     0.08000
H2717       H  0.89662973  0.35527093  0.96626223     0.26400
H2718       H  0.90061749  0.34508754  0.24087676     0.21200
H2719       H  0.94365363  0.42441241  0.19390153     0.26500
H2720       H  0.86312368  0.39008105  0.17305596     0.15400
C2721       C  0.94112343  0.32922539  0.86586869    -0.11900
C2722       C  0.93910919  0.34735593  0.85355903     0.14600
C2723       C  0.92191107  0.35546074  0.85571198     0.01500
C2724       C  0.90751055  0.34578461  0.87405554    -0.16300
C2725       C  0.90973778  0.32801287  0.89014124    -0.11100
C2726       C  0.92664605  0.31936390  0.88347208     0.08300
C2727       C  0.95545323  0.35787925  0.84275154     0.09300
S2728       S  0.91770686  0.37841644  0.83804845    -0.25400
H2729       H  0.89463564  0.35259796  0.87753857     0.19600
S2730       S  0.93107468  0.29609355  0.89762051    -0.31100
H2731       H  0.95427179  0.32287480  0.86314158     0.09900
C2732       C  0.96232369  0.37070873  0.87358172     0.03100
C2733       C  0.97755287  0.38083739  0.86177142    -0.13400
C2734       C  0.98637121  0.37799780  0.82038497    -0.09100
C2735       C  0.97978465  0.36473992  0.79018783     0.06500
C2736       C  0.96429549  0.35493190  0.80146742    -0.14100
S2737       S  0.95206194  0.37378804  0.92857132    -0.31100
H2738       H  0.98279914  0.39084254  0.88509346     0.10800
S2739       S  0.98987000  0.36071543  0.73567763    -0.28200
H2740       H  0.95901981  0.34502958  0.77785340     0.08000
H2741       H  0.91470406  0.28967777  0.87950115     0.26400
H2742       H  0.96126938  0.38976933  0.93976507     0.21200
H2743       H  0.00645396  0.35512521  0.75447777     0.26500
H2744       H  0.93162349  0.37928485  0.80581821     0.15400
C2745       C  0.66505099  0.25679823  0.34521385    -0.11900
C2746       C  0.67442675  0.27313770  0.34158537     0.14600
C2747       C  0.68122795  0.28158225  0.38092050     0.01500
C2748       C  0.67750337  0.27409783  0.42337315    -0.16300
C2749       C  0.66728660  0.25823736  0.42719454    -0.11100
C2750       C  0.66167408  0.24911367  0.38756244     0.08300
C2751       C  0.67487867  0.28203660  0.29701894     0.09300
S2752       S  0.69404941  0.30224754  0.37909840    -0.25400
H2753       H  0.68200496  0.28108300  0.45367329     0.19600
S2754       S  0.65045822  0.22757572  0.38892157    -0.31100
H2755       H  0.65999936  0.25021287  0.31487778     0.09900
C2756       C  0.68536403  0.27527678  0.26129228     0.03100
C2757       C  0.68379871  0.28314945  0.21827512    -0.13400
C2758       C  0.67180076  0.29758127  0.21012460    -0.09100
C2759       C  0.66190415  0.30478340  0.24704336     0.06500
C2760       C  0.66349318  0.29682751  0.28979448    -0.14100
S2761       S  0.70050339  0.25648174  0.27043108    -0.31100
H2762       H  0.69159715  0.27764153  0.19057699     0.10800
S2763       S  0.64613436  0.32321488  0.24203920    -0.28200
H2764       H  0.65541503  0.30191908  0.31758280     0.08000
H2765       H  0.66122682  0.22093549  0.42468827     0.26400
H2766       H  0.70722834  0.25560905  0.22590349     0.21200
H2767       H  0.65924502  0.33520558  0.22521222     0.26500
H2768       H  0.70135688  0.29950368  0.33567380     0.15400
C2769       C  0.65362084  0.28584479  0.85086912    -0.11900
C2770       C  0.65979255  0.26815234  0.84491783     0.14600
C2771       C  0.66377755  0.25742657  0.88331050     0.01500
C2772       C  0.66039038  0.26425813  0.92659968    -0.16300
C2773       C  0.65374655  0.28186745  0.93276692    -0.11100
C2774       C  0.65090417  0.29294610  0.89413974     0.08300
C2775       C  0.66157585  0.26137180  0.79810212     0.09300
S2776       S  0.67326137  0.23503094  0.87959015    -0.25400
H2777       H  0.66301713  0.25568909  0.95572836     0.19600
S2778       S  0.64452227  0.31638094  0.89715807    -0.31100
H2779       H  0.65097529  0.29424055  0.82141152     0.09900
C2780       C  0.65035633  0.24750482  0.78138825     0.03100
C2781       C  0.65224044  0.24189931  0.73634423    -0.13400
C2782       C  0.66454225  0.25038894  0.70729188    -0.09100
C2783       C  0.67561307  0.26440336  0.72385590     0.06500
C2784       C  0.67403638  0.26972342  0.76912344    -0.14100
S2785       S  0.63275728  0.23786274  0.81616418    -0.31100
H2786       H  0.64351884  0.23145098  0.72297497     0.10800
S2787       S  0.69200780  0.27588659  0.68912581    -0.28200
H2788       H  0.68252392  0.28050428  0.78188904     0.08000
H2789       H  0.65636301  0.32024457  0.93322834     0.26400
H2790       H  0.62599267  0.22573946  0.78358236     0.21200
H2791       H  0.69626714  0.26086800  0.66211016     0.26500
H2792       H  0.68188421  0.23745652  0.83761917     0.15400
C2793       C  0.61802564  0.15994334  0.34365098    -0.11900
C2794       C  0.62098953  0.14886831  0.38166902     0.14600
C2795       C  0.61154795  0.13229139  0.38480080     0.01500
C2796       C  0.59828956  0.12806638  0.35230556    -0.16300
C2797       C  0.59470651  0.13980392  0.31602293    -0.11100
C2798       C  0.60511486  0.15555720  0.31097729     0.08300
C2799       C  0.63055285  0.15711431  0.42098088     0.09300
S2800       S  0.61549963  0.11629031  0.42993269    -0.25400
H2801       H  0.59048580  0.11578703  0.35584464     0.19600
S2802       S  0.60145331  0.17133770  0.26541205    -0.31100
H2803       H  0.62478310  0.17286449  0.34111593     0.09900
C2804       C  0.64729581  0.16605851  0.41595985     0.03100
C2805       C  0.65265300  0.17885015  0.44844497    -0.13400
C2806       C  0.64192860  0.18226638  0.48654307    -0.09100
C2807       C  0.62632807  0.17185363  0.49416440     0.06500
C2808       C  0.62070669  0.15952058  0.46113462    -0.14100
S2809       S  0.66139716  0.16176966  0.36725780    -0.31100
H2810       H  0.66474681  0.18678184  0.44324048     0.10800
S2811       S  0.61239171  0.17570930  0.54341470    -0.28200
H2812       H  0.60778587  0.15286857  0.46485339     0.08000
H2813       H  0.58307919  0.17357564  0.27574415     0.26400
H2814       H  0.67542943  0.17364369  0.37932320     0.21200
H2815       H  0.59912521  0.16270626  0.53352922     0.26500
H2816       H  0.63310532  0.12219803  0.44015182     0.15400
C2817       C  0.58721438  0.18661232  0.67444353    -0.11900
C2818       C  0.57047986  0.19281648  0.65835165     0.14600
C2819       C  0.56989385  0.20814854  0.62989631     0.01500
C2820       C  0.58606748  0.21578224  0.61473718    -0.16300
C2821       C  0.60292940  0.20899857  0.62891476    -0.11100
C2822       C  0.60336773  0.19466644  0.66076483     0.08300
C2823       C  0.55413133  0.18241880  0.67065016     0.09300
S2824       S  0.54904268  0.21845004  0.61128838    -0.25400
H2825       H  0.58546874  0.22703313  0.59122253     0.19600
S2826       S  0.62397963  0.18495810  0.68237306    -0.31100
H2827       H  0.58771217  0.17504387  0.69698110     0.09900
C2828       C  0.54444363  0.17224281  0.63820139     0.03100
C2829       C  0.52976710  0.16164239  0.65222115    -0.13400
C2830       C  0.52475822  0.16077749  0.69809229    -0.09100
C2831       C  0.53488324  0.17060210  0.73058365     0.06500
C2832       C  0.54921309  0.18146538  0.71643511    -0.14100
S2833       S  0.55123507  0.17207021  0.57934013    -0.31100
H2834       H  0.52214378  0.15398984  0.62741135     0.10800
S2835       S  0.53108178  0.16895114  0.79086302    -0.28200
H2836       H  0.55697522  0.18885514  0.74153803     0.08000
H2837       H  0.62967111  0.20123341  0.70231404     0.26400
H2838       H  0.53749602  0.16056463  0.56346747     0.21200
H2839       H  0.52720425  0.15042438  0.78998066     0.26500
H2840       H  0.53857791  0.21269602  0.64828059     0.15400
C2841       C  0.61474146  0.31916104  0.55505286    -0.11900
C2842       C  0.60129974  0.31871132  0.58855551     0.14600
C2843       C  0.59645174  0.30189165  0.60781293     0.01500
C2844       C  0.60553978  0.28621387  0.59450964    -0.16300
C2845       C  0.61982902  0.28691594  0.56345889    -0.11100
C2846       C  0.62408035  0.30353140  0.54247642     0.08300
C2847       C  0.59290431  0.33594422  0.60350798     0.09300
S2848       S  0.57951034  0.29956272  0.65125666    -0.25400
H2849       H  0.60211562  0.27349700  0.61055326     0.19600
S2850       S  0.64105914  0.30562992  0.49902789    -0.31100
H2851       H  0.61816776  0.33187710  0.53903532     0.09900
C2852       C  0.60333174  0.34975891  0.62363905     0.03100
C2853       C  0.59470471  0.36513493  0.64075087    -0.13400
C2854       C  0.57579588  0.36680619  0.63988891    -0.09100
C2855       C  0.56553974  0.35364446  0.61654073     0.06500
C2856       C  0.57417020  0.33838815  0.59877933    -0.14100
S2857       S  0.62746515  0.34729248  0.63123145    -0.31100
H2858       H  0.60271767  0.37544163  0.65720641     0.10800
S2859       S  0.54153391  0.35575023  0.60729893    -0.28200
H2860       H  0.56617791  0.32816293  0.58178263     0.08000
H2861       H  0.63821651  0.28842221  0.48025812     0.26400
H2862       H  0.63086714  0.36495688  0.64636913     0.21200
H2863       H  0.54163899  0.37469064  0.60364399     0.26500
H2864       H  0.58347381  0.31590094  0.67331117     0.15400
C2865       C  0.86521970  0.27287532  0.18350950    -0.11900
C2866       C  0.85308808  0.25854858  0.18857986     0.14600
C2867       C  0.84413550  0.25156745  0.15018865     0.01500
C2868       C  0.84805829  0.25861736  0.10734301    -0.16300
C2869       C  0.86023396  0.27306809  0.10180772    -0.11100
C2870       C  0.86868320  0.28042310  0.14100713     0.08300
C2871       C  0.84981004  0.25176843  0.23484684     0.09300
S2872       S  0.82741221  0.23390971  0.15351831    -0.25400
H2873       H  0.84122682  0.25287742  0.07817730     0.19600
S2874       S  0.88380016  0.29948615  0.14021327    -0.31100
H2875       H  0.87186644  0.27841801  0.21323483     0.09900
C2876       C  0.85642333  0.23493173  0.24976543     0.03100
C2877       C  0.85446933  0.23005278  0.29551428    -0.13400
C2878       C  0.84638701  0.24188271  0.32655013    -0.09100
C2879       C  0.83898589  0.25837421  0.31070001     0.06500
C2880       C  0.84093109  0.26314865  0.26525386    -0.14100
S2881       S  0.86858903  0.22035497  0.21151663    -0.31100
H2882       H  0.86026743  0.21752346  0.30772232     0.10800
S2883       S  0.82706897  0.27409449  0.34643604    -0.28200
H2884       H  0.83571176  0.27601938  0.25350815     0.08000
H2885       H  0.87105881  0.31095844  0.11932380     0.26400
H2886       H  0.87126829  0.20606830  0.24231593     0.21200
H2887       H  0.81946069  0.26081933  0.37447822     0.26500
H2888       H  0.82138100  0.23791262  0.19752961     0.15400
C2889       C  0.83092480  0.26383073  0.67228844    -0.11900
C2890       C  0.83957321  0.28012195  0.68331651     0.14600
C2891       C  0.85009495  0.28894971  0.65008458     0.01500
C2892       C  0.85339531  0.28036066  0.60896751    -0.16300
C2893       C  0.84558820  0.26363409  0.59914932    -0.11100
C2894       C  0.83344279  0.25567801  0.63005124     0.08300
C2895       C  0.84038859  0.28561443  0.73150672     0.09300
S2896       S  0.86016266  0.31086296  0.65860609    -0.25400
H2897       H  0.86224544  0.28671681  0.58445055     0.19600
S2898       S  0.82132221  0.23492698  0.61935101    -0.31100
H2899       H  0.82293591  0.25689017  0.69759910     0.09900
C2900       C  0.82481431  0.28805342  0.75835162     0.03100
C2901       C  0.82681932  0.29156433  0.80494030    -0.13400
C2902       C  0.84404732  0.29310984  0.82445502    -0.09100
C2903       C  0.85953982  0.29097755  0.79737417     0.06500
C2904       C  0.85753327  0.28704315  0.75157055    -0.14100
S2905       S  0.80252281  0.28741404  0.73320696    -0.31100
H2906       H  0.81503733  0.29347819  0.82605512     0.10800
S2907       S  0.88230925  0.29278704  0.81910190    -0.28200
H2908       H  0.86953480  0.28474137  0.73143761     0.08000
H2909       H  0.83053519  0.22910168  0.58059432     0.26400
H2910       H  0.79282278  0.28970005  0.77374328     0.21200
H2911       H  0.87871222  0.28596158  0.86259400     0.26500
H2912       H  0.84764464  0.31672104  0.69119516     0.15400
C2913       C  0.73557587  0.20436969  0.52346375    -0.11900
C2914       C  0.74864984  0.21633068  0.54006359     0.14600
C2915       C  0.74349607  0.23020628  0.57002170     0.01500
C2916       C  0.72529203  0.23222771  0.58129499    -0.16300
C2917       C  0.71198784  0.22061046  0.56367085    -0.11100
C2918       C  0.71737088  0.20624389  0.53512955     0.08300
C2919       C  0.76685160  0.21580268  0.51998643     0.09300
S2920       S  0.75923175  0.24660176  0.59219757    -0.25400
H2921       H  0.72143736  0.24328900  0.60322860     0.19600
S2922       S  0.70156540  0.19110172  0.50851502    -0.31100
H2923       H  0.73950035  0.19393313  0.49974696     0.09900
C2924       C  0.78120710  0.20621349  0.54018662     0.03100
C2925       C  0.79851514  0.20740423  0.52115507    -0.13400
C2926       C  0.80159548  0.21794714  0.48224669    -0.09100
C2927       C  0.78686197  0.22648210  0.46037951     0.06500
C2928       C  0.76968124  0.22542574  0.47974661    -0.14100
S2929       S  0.77760669  0.19330207  0.59136268    -0.31100
H2930       H  0.80982322  0.20086795  0.53785180     0.10800
S2931       S  0.78969665  0.23842115  0.40733305    -0.28200
H2932       H  0.75838428  0.23234121  0.46399043     0.08000
H2933       H  0.69568086  0.18393970  0.55017247     0.26400
H2934       H  0.79559893  0.18758610  0.59708633     0.21200
H2935       H  0.77146677  0.24315802  0.40080640     0.26500
H2936       H  0.77430803  0.23513359  0.59381454     0.15400
C2937       C  0.88277946  0.17282313  0.64021460    -0.11900
C2938       C  0.89000271  0.15739643  0.61976761     0.14600
C2939       C  0.88631176  0.15397671  0.57359746     0.01500
C2940       C  0.87747343  0.16713956  0.54760045    -0.16300
C2941       C  0.87199553  0.18360600  0.56694671    -0.11100
C2942       C  0.87357628  0.18579324  0.61454019     0.08300
C2943       C  0.90364090  0.14703328  0.64570518     0.09300
S2944       S  0.89387704  0.13381116  0.54527138    -0.25400
H2945       H  0.87605922  0.16497100  0.51141370     0.19600
S2946       S  0.86467642  0.20499227  0.64439721    -0.31100
H2947       H  0.88516657  0.17524233  0.67600466     0.09900
C2948       C  0.92218153  0.14946639  0.63719529     0.03100
C2949       C  0.93488931  0.14211068  0.66723878    -0.13400
C2950       C  0.92956386  0.13255222  0.70634772    -0.09100
C2951       C  0.91090095  0.12880226  0.71231306     0.06500
C2952       C  0.89819880  0.13639164  0.68248049    -0.14100
S2953       S  0.92973888  0.16348988  0.59067885    -0.31100
H2954       H  0.94904696  0.14491596  0.66158445     0.10800
S2955       S  0.90215851  0.11497483  0.75751473    -0.28200
H2956       H  0.88391541  0.13434016  0.68853882     0.08000
H2957       H  0.84947594  0.20642558  0.61591800     0.26400
H2958       H  0.94825846  0.15948567  0.59465467     0.21200
H2959       H  0.91568310  0.10177142  0.75343323     0.26500
H2960       H  0.89479829  0.12298182  0.58445314     0.15400
C2961       C  0.94296458  0.20046279  0.41322513    -0.11900
C2962       C  0.94103677  0.18430517  0.38903787     0.14600
C2963       C  0.92355060  0.17752298  0.38017239     0.01500
C2964       C  0.90844302  0.18722175  0.39464559    -0.16300
C2965       C  0.91030477  0.20317655  0.41982407    -0.11100
C2966       C  0.92782952  0.20995113  0.42894323     0.08300
C2967       C  0.95753272  0.17478708  0.37387945     0.09300
S2968       S  0.91957494  0.15620975  0.35237610    -0.25400
H2969       H  0.89511004  0.18173202  0.38821730     0.19600
S2970       S  0.93115086  0.23090398  0.45924370    -0.31100
H2971       H  0.95641688  0.20559402  0.41974223     0.09900
C2972       C  0.96186619  0.17320648  0.32750446     0.03100
C2973       C  0.97717857  0.16332165  0.31484952    -0.13400
C2974       C  0.98842767  0.15522114  0.34760704    -0.09100
C2975       C  0.98458501  0.15767637  0.39408590     0.06500
C2976       C  0.96908298  0.16722115  0.40669604    -0.14100
S2977       S  0.94814023  0.18406559  0.28451548    -0.31100
H2978       H  0.98031717  0.16170494  0.27921015     0.10800
S2979       S  0.99929900  0.14965638  0.43870282    -0.28200
H2980       H  0.96601143  0.16883316  0.44240652     0.08000
H2981       H  0.95014779  0.23079014  0.45890684     0.26400
H2982       H  0.95800531  0.17803537  0.24676394     0.21200
H2983       H  0.01548409  0.15273813  0.41502967     0.26500
H2984       H  0.93539798  0.14768880  0.36799103     0.15400
C2985       C  0.91794924  0.30425377  0.46311365    -0.11900
C2986       C  0.91159688  0.31463346  0.42653671     0.14600
C2987       C  0.89551796  0.30951352  0.40403661     0.01500
C2988       C  0.88615817  0.29422059  0.41867546    -0.16300
C2989       C  0.89241864  0.28382096  0.45538562    -0.11100
C2990       C  0.90847216  0.28901668  0.47803865     0.08300
C2991       C  0.92239020  0.33022729  0.41108189     0.09300
S2992       S  0.88645627  0.32156982  0.35571450    -0.25400
H2993       H  0.87392521  0.29028485  0.40088341     0.19600
S2994       S  0.91718062  0.27724547  0.52705019    -0.31100
H2995       H  0.93031099  0.30815086  0.48034382     0.09900
C2996       C  0.92084671  0.34731238  0.43158528     0.03100
C2997       C  0.93003535  0.36211150  0.41275409    -0.13400
C2998       C  0.94091637  0.36006819  0.37413667    -0.09100
C2999       C  0.94271446  0.34270423  0.35453018     0.06500
C3000       C  0.93357525  0.32804281  0.37339934    -0.14100
S3001       S  0.90659695  0.35034703  0.48054209    -0.31100
H3002       H  0.92860920  0.37534429  0.42780889     0.10800
S3003       S  0.95522444  0.33847223  0.30334522    -0.28200
H3004       H  0.93463040  0.31490670  0.35751979     0.08000
H3005       H  0.90013745  0.27391735  0.54627254     0.26400
H3006       H  0.91118131  0.36847285  0.48864676     0.21200
H3007       H  0.94699527  0.35269617  0.27937335     0.26500
H3008       H  0.89321783  0.33865317  0.36729600     0.15400
loop_ 
_geom_bond_atom_site_label_1 
_geom_bond_atom_site_label_2 
_geom_bond_distance 
_geom_bond_site_symmetry_2 
_ccdc_geom_bond_type 
O1           C16   1.264       .  A
O1           Al9   1.901       .  S
C2           O12   1.255       .  A
C2            O3   1.263       .  A
C2         C2893   1.456       .  S
O3           Al5   1.914       .  S
O4            C6   1.260       .  A
O4           Al5   1.891       .  S
Al5          O13   1.896       .  S
Al5          O15   1.911       .  S
Al5          O14   1.775       .  S
C6           O19   1.264       .  A
C6         C2941   1.485       .  S
O7           C17   1.261       .  A
O7           Al9   1.901       .  S
O8           C21   1.255       .  A
O8          Al18   1.863       .  S
Al9          O22   1.939       .  S
Al9          O19   1.921       .  S
Al9          O14   1.782       .  S
O10          C17   1.261       .  A
O10         Al18   1.908       .  S
O11          C20   1.262       .  A
O11         Al18   1.914       .  S
O12         Al18   1.877       .  S
O13          C20   1.259       .  A
O14         Al18   1.779       .  S
O15          C16   1.263       .  A
C16        C2965   1.480       .  S
C17        C2926   1.475       .  S
C20        C2989   1.476       .  S
C21          O22   1.267       .  A
C21        C2878   1.473       .  S
O23          C38   1.259       .  A
O23         Al31   1.892       .  S
C24          O34   1.259       .  A
C24          O25   1.264       .  A
C24        C2749   1.467       .  S
O25         Al27   1.915       .  S
O26          C28   1.257       .  A
O26         Al27   1.887       .  S
Al27         O35   1.895       .  S
Al27         O37   1.912       .  S
Al27         O36   1.777       .  S
C28          O41   1.260       .  A
C28        C2806   1.468       .  S
O29          C39   1.259       .  A
O29         Al31   1.895       .  S
O30          C43   1.259       .  A
O30         Al40   1.881       .  S
Al31         O44   1.915       .  S
Al31         O41   1.920       .  S
Al31         O36   1.785       .  S
O32          C39   1.263       .  A
O32         Al40   1.913       .  S
O33          C42   1.262       .  A
O33         Al40   1.919       .  S
O34         Al40   1.881       .  S
O35          C42   1.258       .  A
O36         Al40   1.786       .  S
O37          C38   1.264       .  A
C38        C2821   1.482       .  S
C39        C2917   1.482       .  S
C42        C2845   1.477       .  S
C43          O44   1.263       .  A
C43        C2782   1.464       .  S
O45          C60   1.259       .  A
O45         Al53   1.878   1_554  S
C46          O56   1.255       .  A
C46          O47   1.262       .  A
C46        C2902   1.459       .  S
O47         Al49   1.918       .  S
O48          C50   1.258       .  A
O48         Al49   1.901       .  S
Al49         O57   1.878       .  S
Al49         O59   1.919   1_556  S
Al49         O58   1.782       .  S
C50          O63   1.260       .  A
C50        C2677   1.482       .  S
O51          C61   1.260       .  A
O51         Al53   1.885       .  S
O52          C65   1.259   1_556  A
O52         Al62   1.905       .  S
Al53         O66   1.911   1_556  S
Al53         O63   1.918       .  S
Al53         O58   1.780       .  S
O54          C61   1.268       .  A
O54         Al62   1.922       .  S
O55          C64   1.263       .  A
O55         Al62   1.923       .  S
O56         Al62   1.869       .  S
O57          C64   1.257       .  A
O58         Al62   1.784       .  S
O59          C60   1.267       .  A
C60        C2869   1.486       .  S
C61        C2725   1.487       .  S
C64        C2653   1.482       .  S
C65          O66   1.262       .  A
C65        C2701   1.473       .  S
O67          C82   1.259       .  A
O67         Al75   1.886   1_556  S
C68          O78   1.258       .  A
C68          O69   1.264       .  A
C68        C2758   1.481       .  S
O69         Al71   1.909       .  S
O70          C72   1.258       .  A
O70         Al71   1.890       .  S
Al71         O79   1.878       .  S
Al71         O81   1.907       .  S
Al71         O80   1.779       .  S
C72          O85   1.264       .  A
C72        C2581   1.484       .  S
O73          C83   1.261       .  A
O73         Al75   1.895       .  S
O74          C87   1.260       .  A
O74         Al84   1.900       .  S
Al75         O88   1.916       .  S
Al75         O85   1.922       .  S
Al75         O80   1.775       .  S
O76          C83   1.263       .  A
O76         Al84   1.924       .  S
O77          C86   1.263       .  A
O77         Al84   1.927       .  S
O78         Al84   1.881       .  S
O79          C86   1.256       .  A
O80         Al84   1.784       .  S
O81          C82   1.262   1_554  A
C82        C2773   1.480       .  S
C83        C2638   1.482       .  S
C86        C2662   1.474       .  S
C87          O88   1.266       .  A
C87        C2614   1.473   1_554  S
O89         C104   1.262       .  A
O89         Al97   1.892       .  S
C90         O100   1.261       .  A
C90          O91   1.265       .  A
C90        C2509   1.478       .  S
O91         Al93   1.916       .  S
O92          C94   1.258       .  A
O92         Al93   1.895       .  S
Al93        O101   1.890       .  S
Al93        O103   1.916       .  S
Al93        O102   1.779       .  S
C94         O107   1.262       .  A
C94        C2494   1.485       .  S
O95         C105   1.261       .  A
O95         Al97   1.899       .  S
O96         C109   1.263       .  A
O96        Al106   1.908       .  S
Al97        O110   1.910       .  S
Al97        O107   1.920       .  S
Al97        O102   1.779       .  S
O98         C105   1.265       .  A
O98        Al106   1.926       .  S
O99         C108   1.262       .  A
O99        Al106   1.930       .  S
O100       Al106   1.885       .  S
O101        C108   1.257       .  A
O102       Al106   1.789       .  S
O103        C104   1.262       .  A
C104       C2533   1.492       .  S
C105       C2854   1.485       .  S
C108       C2566   1.482       .  S
C109        O110   1.264       .  A
C109       C2605   1.478       .  S
O111        C126   1.261       .  A
O111       Al119   1.877       .  S
C112        O122   1.257       .  A
C112        O113   1.260       .  A
C112       C2437   1.457       .  S
O113       Al115   1.908       .  S
O114        C116   1.259       .  A
O114       Al115   1.898       .  S
Al115       O123   1.879       .  S
Al115       O125   1.912       .  S
Al115       O124   1.781       .  S
C116        O129   1.259       .  A
C116       C2422   1.477       .  S
O117        C127   1.259       .  A
O117       Al119   1.883       .  S
O118        C131   1.261       .  A
O118       Al128   1.911       .  S
Al119       O132   1.904       .  S
Al119       O129   1.909       .  S
Al119       O124   1.779       .  S
O120        C127   1.271       .  A
O120       Al128   1.938       .  S
O121        C130   1.266       .  A
O121       Al128   1.942       .  S
O122       Al128   1.876       .  S
O123        C130   1.258       .  A
O124       Al128   1.780       .  S
O125        C126   1.263       .  A
C126       C2461   1.468       .  S
C127       C2374   1.491       .  S
C130       C2557   1.495       .  S
C131        O132   1.260       .  A
C131       C2389   1.469       .  S
O133        C148   1.262       .  A
O133       Al141   1.904       .  S
C134        O144   1.261       .  A
C134        O135   1.264       .  A
C134       C2518   1.477       .  S
O135       Al137   1.910       .  S
O136        C138   1.262       .  A
O136       Al137   1.885       .  S
Al137       O145   1.893       .  S
Al137       O147   1.912       .  S
Al137       O146   1.770       .  S
C138        O151   1.264       .  A
C138       C2317   1.489       .  S
O139        C149   1.260       .  A
O139       Al141   1.901       .  S
O140        C153   1.260       .  A
O140       Al150   1.878       .  S
Al141       O154   1.928       .  S
Al141       O151   1.927       .  S
Al141       O146   1.779       .  S
O142        C149   1.263       .  A
O142       Al150   1.917       .  S
O143        C152   1.263       .  A
O143       Al150   1.922       .  S
O144       Al150   1.898       .  S
O145        C152   1.259       .  A
O146       Al150   1.779       .  S
O147        C148   1.261       .  A
C148       C2293   1.488       .  S
C149       C2341   1.480       .  S
C152       C2629   1.469       .  S
C153        O154   1.265       .  A
C153       C2542   1.485       .  S
O155        C170   1.264       .  A
O155       Al163   1.905       .  S
C156        O166   1.256       .  A
C156        O157   1.262       .  A
C156       C2446   1.455       .  S
O157       Al159   1.907       .  S
O158        C160   1.259       .  A
O158       Al159   1.898       .  S
Al159       O167   1.889       .  S
Al159       O169   1.917       .  S
Al159       O168   1.777       .  S
C160        O173   1.259       .  A
C160       C2278   1.478       .  S
O161        C171   1.265       .  A
O161       Al163   1.911       .  S
O162        C175   1.256       .  A
O162       Al172   1.867       .  S
Al163       O176   1.914       .  S
Al163       O173   1.910       .  S
Al163       O168   1.788       .  S
O164        C171   1.262       .  A
O164       Al172   1.906       .  S
O165        C174   1.259       .  A
O165       Al172   1.914       .  S
O166       Al172   1.878       .  S
O167        C174   1.256       .  A
O168       Al172   1.784       .  S
O169        C170   1.265       .  A
C170       C2245   1.482       .  S
C171       C2350   1.479       .  S
C174       C2221   1.469       .  S
C175        O176   1.260       .  A
C175       C2470   1.464       .  S
O177        C192   1.256       .  A
O177       Al185   1.891       .  S
C178        O188   1.258       .  A
C178        O179   1.262       .  A
C178       C2173   1.471       .  S
O179       Al181   1.913       .  S
O180        C182   1.262       .  A
O180       Al181   1.885       .  S
Al181       O189   1.899   1_554  S
Al181       O191   1.912   1_554  S
Al181       O190   1.779   1_554  S
C182        O195   1.266       .  A
C182       C2269   1.490       .  S
O183        C193   1.257       .  A
O183       Al185   1.896       .  S
O184        C197   1.257       .  A
O184       Al194   1.870       .  S
Al185       O198   1.922       .  S
Al185       O195   1.931   1_556  S
Al185       O190   1.786       .  S
O186        C193   1.260       .  A
O186       Al194   1.903       .  S
O187        C196   1.265       .  A
O187       Al194   1.922       .  S
O188       Al194   1.885   1_554  S
O189        C196   1.261       .  A
O190       Al194   1.782       .  S
O191        C192   1.261       .  A
C192       C2413   1.483       .  S
C193       C2206   1.470       .  S
C196       C2134   1.481       .  S
C197        O198   1.265       .  A
C197       C2149   1.466       .  S
O199        C214   1.262       .  A
O199       Al207   1.912       .  S
C200        O210   1.258   1_556  A
C200        O201   1.263       .  A
C200       C2086   1.477       .  S
O201       Al203   1.914   1_556  S
O202        C204   1.262       .  A
O202       Al203   1.887   1_556  S
Al203       O211   1.904       .  S
Al203       O213   1.911       .  S
Al203       O212   1.778       .  S
C204        O217   1.262   1_556  A
C204       C2038   1.485       .  S
O205        C215   1.260       .  A
O205       Al207   1.901       .  S
O206        C219   1.260       .  A
O206       Al216   1.881       .  S
Al207       O220   1.907       .  S
Al207       O217   1.911       .  S
Al207       O212   1.785       .  S
O208        C215   1.260       .  A
O208       Al216   1.901       .  S
O209        C218   1.264       .  A
O209       Al216   1.919       .  S
O210       Al216   1.893       .  S
O211        C218   1.262       .  A
O212       Al216   1.781       .  S
O213        C214   1.261       .  A
C214       C2062   1.485       .  S
C215       C2197   1.476       .  S
C218       C2014   1.478       .  S
C219        O220   1.263       .  A
C219       C2110   1.466       .  S
O221        C236   1.258       .  A
O221       Al229   1.892       .  S
C222        O232   1.260       .  A
C222        O223   1.262       .  A
C222       C2182   1.472       .  S
O223       Al225   1.913       .  S
O224        C226   1.260       .  A
O224       Al225   1.890       .  S
Al225       O233   1.882       .  S
Al225       O235   1.911       .  S
Al225       O234   1.780       .  S
C226        O239   1.265       .  A
C226       C2254   1.480       .  S
O227        C237   1.260       .  A
O227       Al229   1.893       .  S
O228        C241   1.258       .  A
O228       Al238   1.889       .  S
Al229       O242   1.911       .  S
Al229       O239   1.927       .  S
Al229       O234   1.776       .  S
O230        C237   1.265       .  A
O230       Al238   1.931       .  S
O231        C240   1.266       .  A
O231       Al238   1.933       .  S
O232       Al238   1.886       .  S
O233        C240   1.258       .  A
O234       Al238   1.787       .  S
O235        C236   1.262       .  A
C236       C2158   1.481       .  S
C237       C1966   1.480       .  S
C240       C1990   1.475       .  S
C241        O242   1.264       .  A
C241       C1933   1.463       .  S
O243        C258   1.257       .  A
O243       Al251   1.870       .  S
C244        O254   1.260       .  A
C244        O245   1.262       .  A
C244       C2077   1.478       .  S
O245       Al247   1.912       .  S
O246        C248   1.258       .  A
O246       Al247   1.895       .  S
Al247       O255   1.879       .  S
Al247       O257   1.918       .  S
Al247       O256   1.782       .  S
C248        O261   1.261       .  A
C248       C1909   1.477       .  S
O249        C259   1.258       .  A
O249       Al251   1.879       .  S
O250        C263   1.262       .  A
O250       Al260   1.907       .  S
Al251       O264   1.910       .  S
Al251       O261   1.916       .  S
Al251       O256   1.777       .  S
O252        C259   1.264       .  A
O252       Al260   1.922       .  S
O253        C262   1.264       .  A
O253       Al260   1.926       .  S
O254       Al260   1.890       .  S
O255        C262   1.257       .  A
O256       Al260   1.786       .  S
O257        C258   1.264       .  A
C258       C2101   1.468       .  S
C259       C1885   1.466       .  S
C262       C1981   1.481       .  S
C263        O264   1.263       .  A
C263       C1870   1.475       .  S
O265        C280   1.261       .  A
O265       Al273   1.896       .  S
C266        O276   1.255       .  A
C266        O267   1.262       .  A
C266       C1765   1.457       .  S
O267       Al269   1.914       .  S
O268        C270   1.259       .  A
O268       Al269   1.890       .  S
Al269       O277   1.888       .  S
Al269       O279   1.918       .  S
Al269       O278   1.781       .  S
C270        O283   1.263       .  A
C270       C1837   1.484       .  S
O271        C281   1.259       .  A
O271       Al273   1.893       .  S
O272        C285   1.255       .  A
O272       Al282   1.862       .  S
Al273       O286   1.920       .  S
Al273       O283   1.910       .  S
Al273       O278   1.785       .  S
O274        C281   1.264       .  A
O274       Al282   1.921       .  S
O275        C284   1.263       .  A
O275       Al282   1.917       .  S
O276       Al282   1.878       .  S
O277        C284   1.258       .  A
O278       Al282   1.784       .  S
O279        C280   1.264       .  A
C280       C1822   1.488       .  S
C281       C1798   1.485       .  S
C284       C2734   1.471   1_455  S
C285        O286   1.263       .  A
C285       C1750   1.471       .  S
O287        C302   1.259       .  A
O287       Al295   1.901       .  S
C288        O298   1.258       .  A
C288        O289   1.261       .  A
C288       C1726   1.475       .  S
O289       Al291   1.907       .  S
O290        C292   1.262       .  A
O290       Al291   1.891       .  S
Al291       O299   1.898       .  S
Al291       O301   1.893       .  S
Al291       O300   1.782       .  S
C292        O305   1.261       .  A
C292       C2029   1.477       .  S
O293        C303   1.258       .  A
O293       Al295   1.902       .  S
O294        C307   1.257       .  A
O294       Al304   1.864       .  S
Al295       O308   1.912       .  S
Al295       O305   1.894       .  S
Al295       O300   1.788       .  S
O296        C303   1.259       .  A
O296       Al304   1.906       .  S
O297        C306   1.263       .  A
O297       Al304   1.922       .  S
O298       Al304   1.884       .  S
O299        C306   1.259       .  A
O300       Al304   1.788       .  S
O301        C302   1.257       .  A
C302       C1918   1.475       .  S
C303       C1789   1.478       .  S
C306       C1669   1.477   1_455  S
C307        O308   1.262       .  A
C307       C1702   1.458       .  S
O309        C324   1.258       .  A
O309       Al317   1.874       .  S
C310        O320   1.257       .  A
C310        O311   1.263       .  A
C310       C1774   1.461       .  S
O311       Al313   1.914       .  S
O312        C314   1.257       .  A
O312       Al313   1.897   1_455  S
Al313       O321   1.881       .  S
Al313       O323   1.916       .  S
Al313       O322   1.785       .  S
C314        O327   1.260   1_455  A
C314       C1645   1.492       .  S
O315        C325   1.258       .  A
O315       Al317   1.886       .  S
O316        C329   1.260       .  A
O316       Al326   1.899       .  S
Al317       O330   1.906       .  S
Al317       O327   1.907       .  S
Al317       O322   1.780       .  S
O318        C325   1.267       .  A
O318       Al326   1.940       .  S
O319        C328   1.264       .  A
O319       Al326   1.937       .  S
O320       Al326   1.873       .  S
O321        C328   1.257       .  A
O322       Al326   1.788       .  S
O323        C324   1.263       .  A
C324       C1741   1.461   1_655  S
C325       C2998   1.481       .  S
C328       C1621   1.501       .  S
C329        O330   1.262       .  A
C329       C2710   1.467       .  S
O331        C346   1.258       .  A
O331       Al339   1.871       .  S
C332        O342   1.260       .  A
C332        O333   1.261       .  A
C332       C1717   1.474       .  S
O333       Al335   1.899       .  S
O334        C336   1.260       .  A
O334       Al335   1.902   1_455  S
Al335       O343   1.878       .  S
Al335       O345   1.907       .  S
Al335       O344   1.779       .  S
C336        O349   1.264   1_455  A
C336       C2053   1.490       .  S
O337        C347   1.260       .  A
O337       Al339   1.887       .  S
O338        C351   1.260       .  A
O338       Al348   1.904       .  S
Al339       O352   1.908       .  S
Al339       O349   1.926       .  S
Al339       O344   1.775       .  S
O340        C347   1.269       .  A
O340       Al348   1.935       .  S
O341        C350   1.267       .  A
O341       Al348   1.945       .  S
O342       Al348   1.891       .  S
O343        C350   1.258       .  A
O344       Al348   1.783       .  S
O345        C346   1.259       .  A
C346       C1693   1.475       .  S
C347       C1582   1.484       .  S
C350       C1630   1.484       .  S
C351        O352   1.263       .  A
C351       C1606   1.481       .  S
O353        C368   1.260       .  A
O353       Al361   1.903       .  S
C354        O364   1.263       .  A
C354        O355   1.267       .  A
C354       C1525   1.472       .  S
O355       Al357   1.919       .  S
O356        C358   1.259       .  A
O356       Al357   1.891       .  S
Al357       O365   1.905       .  S
Al357       O367   1.898       .  S
Al357       O366   1.776       .  S
C358        O371   1.261       .  A
C358       C2797   1.467       .  S
O359        C369   1.259       .  A
O359       Al361   1.909       .  S
O360        C373   1.260       .  A
O360       Al370   1.870       .  S
Al361       O374   1.928       .  S
Al361       O371   1.913       .  S
Al361       O366   1.793       .  S
O362        C369   1.259       .  A
O362       Al370   1.903       .  S
O363        C372   1.258       .  A
O363       Al370   1.916       .  S
O364       Al370   1.893       .  S
O365        C372   1.257       .  A
O366       Al370   1.788       .  S
O367        C368   1.259       .  A
C368       C2590   1.478       .  S
C369       C1549   1.478       .  S
C372       C1486   1.477       .  S
C373        O374   1.267       .  A
C373       C1501   1.466       .  S
O375        C390   1.260       .  A
O375       Al383   1.907       .  S
C376        O386   1.259       .  A
C376        O377   1.262       .  A
C376       C1429   1.479       .  S
O377       Al379   1.906       .  S
O378        C380   1.263       .  A
O378       Al379   1.894       .  S
Al379       O387   1.907       .  S
Al379       O389   1.898       .  S
Al379       O388   1.780       .  S
C380        O393   1.264       .  A
C380       C1414   1.482       .  S
O381        C391   1.258       .  A
O381       Al383   1.898       .  S
O382        C395   1.260       .  A
O382       Al392   1.878       .  S
Al383       O396   1.911       .  S
Al383       O393   1.911       .  S
Al383       O388   1.785       .  S
O384        C391   1.260       .  A
O384       Al392   1.908       .  S
O385        C394   1.263       .  A
O385       Al392   1.920       .  S
O386       Al392   1.894       .  S
O387        C394   1.262       .  A
O388       Al392   1.783       .  S
O389        C390   1.259       .  A
C390       C1381   1.482       .  S
C391       C1558   1.480       .  S
C394       C1957   1.483       .  S
C395        O396   1.262       .  A
C395       C1453   1.482       .  S
O397        C412   1.259       .  A
O397       Al405   1.880       .  S
C398        O408   1.260       .  A
C398        O399   1.261       .  A
C398       C1534   1.476       .  S
O399       Al401   1.901       .  S
O400        C402   1.258       .  A
O400       Al401   1.900       .  S
Al401       O409   1.879       .  S
Al401       O411   1.917       .  S
Al401       O410   1.785       .  S
C402        O415   1.259       .  A
C402       C2830   1.479       .  S
O403        C413   1.261       .  A
O403       Al405   1.894       .  S
O404        C417   1.260       .  A
O404       Al414   1.910       .  S
Al405       O418   1.898       .  S
Al405       O415   1.908       .  S
Al405       O410   1.779       .  S
O406        C413   1.267       .  A
O406       Al414   1.931       .  S
O407        C416   1.266       .  A
O407       Al414   1.930       .  S
O408       Al414   1.893       .  S
O409        C416   1.256       .  A
O410       Al414   1.788       .  S
O411        C412   1.263       .  A
C412       C1510   1.468       .  S
C413       C1309   1.479       .  S
C416       C1366   1.491       .  S
C417        O418   1.261       .  A
C417       C1333   1.480       .  S
O419        C434   1.257       .  A
O419       Al427   1.875       .  S
C420        O430   1.262       .  A
C420        O421   1.261       .  A
C420       C1438   1.477       .  S
O421       Al423   1.901       .  S
O422        C424   1.257       .  A
O422       Al423   1.883       .  S
Al423       O431   1.878       .  S
Al423       O433   1.908       .  S
Al423       O432   1.786       .  S
C424        O437   1.262       .  A
C424       C1285   1.477       .  S
O425        C435   1.259       .  A
O425       Al427   1.896       .  S
O426        C439   1.261       .  A
O426       Al436   1.898       .  S
Al427       O440   1.912       .  S
Al427       O437   1.918       .  S
Al427       O432   1.782       .  S
O428        C435   1.263       .  A
O428       Al436   1.924       .  S
O429        C438   1.261       .  A
O429       Al436   1.924       .  S
O430       Al436   1.890       .  S
O431        C438   1.257       .  A
O432       Al436   1.793       .  S
O433        C434   1.259       .  A
C434       C1462   1.480       .  S
C435       C2125   1.482       .  S
C438       C1357   1.486       .  S
C439        O440   1.265       .  A
C439       C1942   1.472       .  S
O441        C456   1.263       .  A
O441       Al449   1.913       .  S
C442        O452   1.259   1_556  A
C442        O443   1.264       .  A
C442       C1198   1.474       .  S
O443       Al445   1.909   1_556  S
O444        C446   1.260       .  A
O444       Al445   1.883   1_556  S
Al445       O453   1.896       .  S
Al445       O455   1.907       .  S
Al445       O454   1.779       .  S
C446        O459   1.258   1_556  A
C446       C1246   1.480       .  S
O447        C457   1.261       .  A
O447       Al449   1.913       .  S
O448        C461   1.259       .  A
O448       Al458   1.870       .  S
Al449       O462   1.914       .  S
Al449       O459   1.900       .  S
Al449       O454   1.791       .  S
O450        C457   1.260       .  A
O450       Al458   1.909       .  S
O451        C460   1.260       .  A
O451       Al458   1.913       .  S
O452       Al458   1.884       .  S
O453        C460   1.257       .  A
O454       Al458   1.784       .  S
O455        C456   1.261       .  A
C456       C1261   1.483       .  S
C457       C1213   1.485       .  S
C460       C1573   1.482       .  S
C461        O462   1.263       .  A
C461       C1174   1.460       .  S
O463        C478   1.261       .  A
O463       Al471   1.905       .  S
C464        O474   1.256       .  A
C464        O465   1.260       .  A
C464       C1117   1.475       .  S
O465       Al467   1.897       .  S
O466        C468   1.259       .  A
O466       Al467   1.878       .  S
Al467       O475   1.893   1_554  S
Al467       O477   1.907   1_554  S
Al467       O476   1.778   1_554  S
C468        O481   1.266   1_554  A
C468       C1405   1.491       .  S
O469        C479   1.262       .  A
O469       Al471   1.908       .  S
O470        C483   1.257       .  A
O470       Al480   1.874       .  S
Al471       O484   1.927       .  S
Al471       O481   1.938       .  S
Al471       O476   1.786       .  S
O472        C479   1.262       .  A
O472       Al480   1.908       .  S
O473        C482   1.265       .  A
O473       Al480   1.921       .  S
O474       Al480   1.890   1_554  S
O475        C482   1.260       .  A
O476       Al480   1.780       .  S
O477        C478   1.261       .  A
C478       C1294   1.473       .  S
C479       C1222   1.481       .  S
C482       C2365   1.471       .  S
C483        O484   1.265       .  A
C483       C1141   1.472       .  S
O485        C500   1.257       .  A
O485       Al493   1.874       .  S
C486        O496   1.260       .  A
C486        O487   1.260       .  A
C486       C1189   1.471       .  S
O487       Al489   1.896       .  S
O488        C490   1.258       .  A
O488       Al489   1.893       .  S
Al489       O497   1.889       .  S
Al489       O499   1.914       .  S
Al489       O498   1.788       .  S
C490        O503   1.261       .  A
C490       C1102   1.483       .  S
O491        C501   1.261       .  A
O491       Al493   1.899       .  S
O492        C505   1.258       .  A
O492       Al502   1.897       .  S
Al493       O506   1.903       .  S
Al493       O503   1.919       .  S
Al493       O498   1.781       .  S
O494        C501   1.265       .  A
O494       Al502   1.925       .  S
O495        C504   1.264       .  A
O495       Al502   1.931       .  S
O496       Al502   1.889       .  S
O497        C504   1.259       .  A
O498       Al502   1.788       .  S
O499        C500   1.260       .  A
C500       C1165   1.459       .  S
C501       C1678   1.484       .  S
C504       C1069   1.478       .  S
C505        O506   1.262       .  A
C505       C1597   1.476       .  S
O507        C522   1.261       .  A
O507       Al515   1.884       .  S
C508        O518   1.259       .  A
C508        O509   1.262       .  A
C508       C1126   1.471       .  S
O509       Al511   1.905       .  S
O510        C512   1.257       .  A
O510       Al511   1.904       .  S
Al511       O519   1.887       .  S
Al511       O521   1.922       .  S
Al511       O520   1.783       .  S
C512        O525   1.258       .  A
C512       C1390   1.481       .  S
O513        C523   1.262       .  A
O513       Al515   1.893       .  S
O514        C527   1.262       .  A
O514       Al524   1.910       .  S
Al515       O528   1.895       .  S
Al515       O525   1.907       .  S
Al515       O520   1.781       .  S
O516        C523   1.267       .  A
O516       Al524   1.928       .  S
O517        C526   1.261       .  A
O517       Al524   1.925       .  S
O518       Al524   1.878       .  S
O519        C526   1.258       .  A
O520       Al524   1.789       .  S
O521        C522   1.267       .  A
C522       C1150   1.481       .  S
C523       C2230   1.484       .  S
C526       C1078   1.485       .  S
C527        O528   1.260       .  A
C527       C2398   1.472       .  S
O529        C544   1.262       .  A
O529       Al537   1.919       .  S
C530        O540   1.258       .  A
C530        O531   1.262       .  A
C530       C1021   1.472       .  S
O531       Al533   1.909       .  S
O532        C534   1.261       .  A
O532       Al533   1.882       .  S
Al533       O541   1.893       .  S
Al533       O543   1.893       .  S
Al533       O542   1.778       .  S
C534        O547   1.267       .  A
C534       C2326   1.485       .  S
O535        C545   1.257       .  A
O535       Al537   1.901       .  S
O536        C549   1.258       .  A
O536       Al546   1.867       .  S
Al537       O550   1.935       .  S
Al537       O547   1.924       .  S
Al537       O542   1.787       .  S
O538        C545   1.258       .  A
O538       Al546   1.900       .  S
O539        C548   1.265       .  A
O539       Al546   1.926       .  S
O540       Al546   1.897       .  S
O541        C548   1.260       .  A
O542       Al546   1.788       .  S
O543        C544   1.256       .  A
C544       C2485   1.491       .  S
C545       C1054   1.474       .  S
C548       C1318   1.474       .  S
C549        O550   1.268       .  A
C549        C997   1.472       .  S
O551        C566   1.263       .  A
O551       Al559   1.908       .  S
C552        O562   1.260       .  A
C552        O553   1.263       .  A
C552        C949   1.477       .  S
O553       Al555   1.908       .  S
O554        C556   1.260       .  A
O554       Al555   1.882       .  S
Al555       O563   1.899       .  S
Al555       O565   1.909       .  S
Al555       O564   1.776       .  S
C556        O569   1.264       .  A
C556       C1846   1.487       .  S
O557        C567   1.262       .  A
O557       Al559   1.918       .  S
O558        C571   1.261       .  A
O558       Al568   1.879       .  S
Al559       O572   1.928       .  S
Al559       O569   1.926       .  S
Al559       O564   1.784       .  S
O560        C567   1.261       .  A
O560       Al568   1.903       .  S
O561        C570   1.264       .  A
O561       Al568   1.923       .  S
O562       Al568   1.898       .  S
O563        C570   1.260       .  A
O564       Al568   1.779       .  S
O565        C566   1.260       .  A
C566       C1654   1.489       .  S
C567       C1045   1.496       .  S
C570        C925   1.484       .  S
C571        O572   1.267       .  A
C571        C982   1.474       .  S
O573        C588   1.260       .  A
O573       Al581   1.888   1_556  S
C574        O584   1.259       .  A
C574        O575   1.261       .  A
C574       C1030   1.464       .  S
O575       Al577   1.911       .  S
O576        C578   1.257       .  A
O576       Al577   1.884       .  S
Al577       O585   1.872       .  S
Al577       O587   1.906       .  S
Al577       O586   1.783       .  S
C578        O591   1.263       .  A
C578       C2302   1.485       .  S
O579        C589   1.260       .  A
O579       Al581   1.894       .  S
O580        C593   1.260       .  A
O580       Al590   1.901       .  S
Al581       O594   1.906       .  S
Al581       O591   1.916       .  S
Al581       O586   1.782       .  S
O582        C589   1.267       .  A
O582       Al590   1.930       .  S
O583        C592   1.265       .  A
O583       Al590   1.937       .  S
O584       Al590   1.891       .  S
O585        C592   1.255       .  A
O586       Al590   1.790       .  S
O587        C588   1.259   1_554  A
C588       C1006   1.486       .  S
C589       C1477   1.491       .  S
C592        C910   1.479       .  S
C593        O594   1.262       .  A
C593       C1342   1.471   1_554  S
O595        C610   1.256       .  A
O595       Al603   1.881       .  S
C596        O606   1.260       .  A
C596        O597   1.262       .  A
C596        C958   1.484       .  S
O597       Al599   1.913       .  S
O598        C600   1.261       .  A
O598       Al599   1.897       .  S
Al599       O607   1.888       .  S
Al599       O609   1.921   1_556  S
Al599       O608   1.782       .  S
C600        O613   1.264       .  A
C600       C1813   1.487       .  S
O601        C611   1.258       .  A
O601       Al603   1.882   1_556  S
O602        C615   1.258       .  A
O602       Al612   1.889   1_554  S
Al603       O616   1.906       .  S
Al603       O613   1.922   1_554  S
Al603       O608   1.778   1_554  S
O604        C611   1.265       .  A
O604       Al612   1.932       .  S
O605        C614   1.266       .  A
O605       Al612   1.933       .  S
O606       Al612   1.889       .  S
O607        C614   1.261       .  A
O608       Al612   1.789       .  S
O609        C610   1.262       .  A
C610        C973   1.478       .  S
C611        C877   1.484       .  S
C614        C901   1.490   1_556  S
C615        O616   1.262       .  A
C615        C853   1.463       .  S
O617        C632   1.260       .  A
O617       Al625   1.906       .  S
C618        O628   1.263       .  A
C618        O619   1.264       .  A
C618        C814   1.478   1_655  S
O619       Al621   1.911       .  S
O620        C622   1.262       .  A
O620       Al621   1.887       .  S
Al621       O629   1.902       .  S
Al621       O631   1.908       .  S
Al621       O630   1.776       .  S
C622        O635   1.265       .  A
C622       C2950   1.491       .  S
O623        C633   1.259       .  A
O623       Al625   1.905       .  S
O624        C637   1.260       .  A
O624       Al634   1.870       .  S
Al625       O638   1.930       .  S
Al625       O635   1.922       .  S
Al625       O630   1.786       .  S
O626        C633   1.258       .  A
O626       Al634   1.904       .  S
O627        C636   1.261       .  A
O627       Al634   1.919   1_455  S
O628       Al634   1.902       .  S
O629        C636   1.263   1_655  A
O630       Al634   1.784       .  S
O631        C632   1.259       .  A
C632       C2686   1.485       .  S
C633        C838   1.482       .  S
C636        C886   1.487       .  S
C637        O638   1.267       .  A
C637        C781   1.472       .  S
O639        C654   1.262       .  A
O639       Al647   1.896       .  S
C640        O650   1.260       .  A
C640        O641   1.267       .  A
C640        C742   1.464   1_655  S
O641       Al643   1.927       .  S
O642        C644   1.255       .  A
O642       Al643   1.879       .  S
Al643       O651   1.889       .  S
Al643       O653   1.923       .  S
Al643       O652   1.774       .  S
C644        O657   1.263       .  A
C644       C1237   1.486       .  S
O645        C655   1.259       .  A
O645       Al647   1.900       .  S
O646        C659   1.261       .  A
O646       Al656   1.881       .  S
Al647       O660   1.930       .  S
Al647       O657   1.910       .  S
Al647       O652   1.781       .  S
O648        C655   1.263       .  A
O648       Al656   1.920       .  S
O649        C658   1.261       .  A
O649       Al656   1.920   1_455  S
O650       Al656   1.886       .  S
O651        C658   1.255   1_655  A
O652       Al656   1.782       .  S
O653        C654   1.265       .  A
C654       C1093   1.485       .  S
C655        C829   1.478       .  S
C658       C1894   1.469       .  S
C659        O660   1.266       .  A
C659        C757   1.465       .  S
O661        C676   1.259       .  A
O661       Al669   1.887       .  S
C662        O672   1.259       .  A
C662        O663   1.259       .  A
C662        C805   1.482       .  S
O663       Al665   1.901       .  S
O664        C666   1.259       .  A
O664       Al665   1.901       .  S
Al665       O673   1.887       .  S
Al665       O675   1.922       .  S
Al665       O674   1.788       .  S
C666        O679   1.258       .  A
C666       C2974   1.476   1_455  S
O667        C677   1.264       .  A
O667       Al669   1.902       .  S
O668        C681   1.259       .  A
O668       Al678   1.904       .  S
Al669       O682   1.891       .  S
Al669       O679   1.905       .  S
Al669       O674   1.784       .  S
O670        C677   1.269       .  A
O670       Al678   1.930       .  S
O671        C680   1.265       .  A
O671       Al678   1.931       .  S
O672       Al678   1.897       .  S
O673        C680   1.260       .  A
O674       Al678   1.790       .  S
O675        C676   1.262       .  A
C676        C790   1.465       .  S
C677        C934   1.493       .  S
C680        C718   1.494       .  S
C681        O682   1.256       .  A
C681        C862   1.473       .  S
O683        C698   1.257       .  A
O683       Al691   1.885       .  S
C684        O694   1.259       .  A
C684        O685   1.263       .  A
C684        C733   1.473       .  S
O685       Al687   1.913       .  S
O686        C688   1.261       .  A
O686       Al687   1.902       .  S
Al687       O695   1.892       .  S
Al687       O697   1.910       .  S
Al687       O696   1.787       .  S
C688        O701   1.264       .  A
C688       C1270   1.493   1_455  S
O689        C699   1.259       .  A
O689       Al691   1.897       .  S
O690        C703   1.262       .  A
O690       Al700   1.902       .  S
Al691       O704   1.914       .  S
Al691       O701   1.919       .  S
Al691       O696   1.780       .  S
O692        C699   1.265       .  A
O692       Al700   1.930       .  S
O693        C702   1.265       .  A
O693       Al700   1.941       .  S
O694       Al700   1.888       .  S
O695        C702   1.259       .  A
O696       Al700   1.792       .  S
O697        C698   1.259       .  A
C698        C766   1.464       .  S
C699       C2005   1.485       .  S
C702        C709   1.485       .  S
C703        O704   1.265       .  A
C703       C1861   1.477       .  S
C705        C706   1.403   1_565  A
C705        C710   1.403       .  A
C705        H715   1.083   1_565  S
C706        C711   1.491       .  S
C706        C707   1.416       .  A
C707        C708   1.406   1_545  A
C707        S712   1.804       .  S
C708        C709   1.405       .  A
C708        H713   1.084       .  S
C709        C710   1.412       .  A
C710        S714   1.806       .  S
C711        C716   1.410       .  A
C711        C720   1.404       .  A
S712        H728   1.405       .  S
S714        H725   1.407       .  S
C716        C717   1.404       .  A
C716        S721   1.807       .  S
C717        C718   1.409       .  A
C717        H722   1.082       .  S
C718        C719   1.418       .  A
C719        C720   1.405       .  A
C719        S723   1.801       .  S
C720        H724   1.084       .  S
S721        H726   1.407       .  S
S723        H727   1.406       .  S
C729        C730   1.403   1_554  A
C729        C734   1.398       .  A
C729        H739   1.084   1_554  S
C730        C735   1.480       .  S
C730        C731   1.411   1_556  A
C731        C732   1.398       .  A
C731        S736   1.804   1_554  S
C732        C733   1.404       .  A
C732        H737   1.084       .  S
C733        C734   1.415       .  A
C734        S738   1.806       .  S
C735        C740   1.410       .  A
C735        C744   1.404       .  A
S736        H752   1.406       .  S
S738        H749   1.405       .  S
C740        C741   1.402       .  A
C740        S745   1.807       .  S
C741        C742   1.400       .  A
C741        H746   1.079       .  S
C742        C743   1.408   1_455  A
C743        C744   1.397   1_655  A
C743        S747   1.804       .  S
C744        H748   1.084   1_455  S
S745        H750   1.407       .  S
S747        H751   1.405       .  S
C753        C754   1.399       .  A
C753        C758   1.392       .  A
C753        H763   1.085       .  S
C754        C759   1.470       .  S
C754        C755   1.412       .  A
C755        C756   1.401       .  A
C755        S760   1.804       .  S
C756        C757   1.403       .  A
C756        H761   1.083       .  S
C757        C758   1.410       .  A
C758        S762   1.803       .  S
C759        C764   1.408   1_655  A
C759        C768   1.400       .  A
S760        H776   1.404       .  S
S762        H773   1.405       .  S
C764        C765   1.399       .  A
C764        S769   1.807       .  S
C765        C766   1.400       .  A
C765        H770   1.081       .  S
C766        C767   1.412   1_455  A
C767        C768   1.397       .  A
C767        S771   1.803       .  S
C768        H772   1.084       .  S
S769        H774   1.407       .  S
S771        H775   1.402       .  S
C777        C778   1.404       .  A
C777        C782   1.404   1_554  A
C777        H787   1.083       .  S
C778        C783   1.474       .  S
C778        C779   1.410       .  A
C779        C780   1.391   1_554  A
C779        S784   1.806   1_655  S
C780        C781   1.403       .  A
C780        H785   1.083       .  S
C781        C782   1.413       .  A
C782        S786   1.803       .  S
C783        C788   1.408       .  A
C783        C792   1.400   1_655  A
S784        H800   1.405       .  S
S786        H797   1.407       .  S
C788        C789   1.403       .  A
C788        S793   1.805       .  S
C789        C790   1.403   1_655  A
C789        H794   1.083       .  S
C790        C791   1.413       .  A
C791        C792   1.395       .  A
C791        S795   1.808       .  S
C792        H796   1.084       .  S
S793        H798   1.407       .  S
S795        H799   1.400       .  S
C801        C802   1.399       .  A
C801        C806   1.398       .  A
C801        H811   1.085       .  S
C802        C807   1.477       .  S
C802        C803   1.412       .  A
C803        C804   1.399       .  A
C803        S808   1.804       .  S
C804        C805   1.406       .  A
C804        H809   1.084       .  S
C805        C806   1.418       .  A
C806        S810   1.803       .  S
C807        C812   1.408       .  A
C807        C816   1.402       .  A
S808        H824   1.406       .  S
S810        H821   1.406       .  S
C812        C813   1.397       .  A
C812        S817   1.807       .  S
C813        C814   1.404       .  A
C813        H818   1.083   1_455  S
C814        C815   1.416       .  A
C815        C816   1.403       .  A
C815        S819   1.801       .  S
C816        H820   1.084       .  S
S817        H822   1.407   1_455  S
S819        H823   1.408       .  S
C825        C826   1.402       .  A
C825        C830   1.397   1_545  A
C825        H835   1.084       .  S
C826        C831   1.484       .  S
C826        C827   1.415   1_545  A
C827        C828   1.403       .  A
C827        S832   1.804       .  S
C828        C829   1.405       .  A
C828        H833   1.084       .  S
C829        C830   1.413       .  A
C830        S834   1.803       .  S
C831        C836   1.410       .  A
C831        C840   1.404       .  A
S832        H848   1.405   1_565  S
S834        H845   1.406       .  S
C836        C837   1.402       .  A
C836        S841   1.808       .  S
C837        C838   1.406       .  A
C837        H842   1.083       .  S
C838        C839   1.414       .  A
C839        C840   1.402       .  A
C839        S843   1.802       .  S
C840        H844   1.084       .  S
S841        H846   1.407       .  S
S843        H847   1.407       .  S
C849        C850   1.404       .  A
C849        C854   1.397       .  A
C849        H859   1.084       .  S
C850        C855   1.476       .  S
C850        C851   1.412       .  A
C851        C852   1.397       .  A
C851        S856   1.804       .  S
C852        C853   1.401       .  A
C852        H857   1.084       .  S
C853        C854   1.409       .  A
C854        S858   1.804       .  S
C855        C860   1.408       .  A
C855        C864   1.399       .  A
S856        H872   1.406       .  S
S858        H869   1.407       .  S
C860        C861   1.405       .  A
C860        S865   1.804       .  S
C861        C862   1.405       .  A
C861        H866   1.083       .  S
C862        C863   1.414       .  A
C863        C864   1.392       .  A
C863        S867   1.802       .  S
C864        H868   1.084       .  S
S865        H870   1.407       .  S
S867        H871   1.400       .  S
C873        C874   1.403       .  A
C873        C878   1.401       .  A
C873        H883   1.084       .  S
C874        C879   1.480       .  S
C874        C875   1.411       .  A
C875        C876   1.397       .  A
C875        S880   1.806       .  S
C876        C877   1.407       .  A
C876        H881   1.084       .  S
C877        C878   1.415       .  A
C878        S882   1.800       .  S
C879        C884   1.409       .  A
C879        C888   1.399       .  A
S880        H896   1.405       .  S
S882        H893   1.404       .  S
C884        C885   1.403       .  A
C884        S889   1.807       .  S
C885        C886   1.408       .  A
C885        H890   1.082       .  S
C886        C887   1.421       .  A
C887        C888   1.397       .  A
C887        S891   1.802       .  S
C888        H892   1.084       .  S
S889        H894   1.407       .  S
S891        H895   1.402       .  S
C897        C898   1.401       .  A
C897        C902   1.402       .  A
C897        H907   1.084       .  S
C898        C903   1.481       .  S
C898        C899   1.410       .  A
C899        C900   1.397       .  A
C899        S904   1.805       .  S
C900        C901   1.408       .  A
C900        H905   1.084       .  S
C901        C902   1.419       .  A
C902        S906   1.800   1_554  S
C903        C908   1.409       .  A
C903        C912   1.400       .  A
S904        H920   1.406       .  S
S906        H917   1.407   1_556  S
C908        C909   1.406       .  A
C908        S913   1.805       .  S
C909        C910   1.405       .  A
C909        H914   1.083       .  S
C910        C911   1.415       .  A
C911        C912   1.401       .  A
C911        S915   1.811   1_554  S
C912        H916   1.083   1_554  S
S913        H918   1.407       .  S
S915        H919   1.407       .  S
C921        C922   1.402       .  A
C921        C926   1.402       .  A
C921        H931   1.084       .  S
C922        C927   1.484       .  S
C922        C923   1.413       .  A
C923        C924   1.400       .  A
C923        S928   1.805       .  S
C924        C925   1.406       .  A
C924        H929   1.085       .  S
C925        C926   1.416       .  A
C926        S930   1.802       .  S
C927        C932   1.408       .  A
C927        C936   1.400       .  A
S928        H944   1.404       .  S
S930        H941   1.407       .  S
C932        C933   1.405       .  A
C932        S937   1.806       .  S
C933        C934   1.409       .  A
C933        H938   1.083       .  S
C934        C935   1.421       .  A
C935        C936   1.401       .  A
C935        S939   1.801       .  S
C936        H940   1.084       .  S
S937        H942   1.407       .  S
S939        H943   1.408       .  S
C945        C946   1.401       .  A
C945        C950   1.401       .  A
C945        H955   1.084       .  S
C946        C951   1.472       .  S
C946        C947   1.411       .  A
C947        C948   1.393       .  A
C947        S952   1.807       .  S
C948        C949   1.405       .  A
C948        H953   1.084       .  S
C949        C950   1.415       .  A
C950        S954   1.801       .  S
C951        C956   1.405       .  A
C951        C960   1.399       .  A
S952        H968   1.403       .  S
S954        H965   1.408       .  S
C956        C957   1.399       .  A
C956        S961   1.807       .  S
C957        C958   1.406       .  A
C957        H962   1.078       .  S
C958        C959   1.419       .  A
C959        C960   1.399       .  A
C959        S963   1.803       .  S
C960        H964   1.084       .  S
S961        H966   1.407       .  S
S963        H967   1.408       .  S
C969        C970   1.401       .  A
C969        C974   1.396       .  A
C969        H979   1.084       .  S
C970        C975   1.476       .  S
C970        C971   1.410       .  A
C971        C972   1.400       .  A
C971        S976   1.803       .  S
C972        C973   1.406       .  A
C972        H977   1.084       .  S
C973        C974   1.416       .  A
C974        S978   1.803       .  S
C975        C980   1.408       .  A
C975        C984   1.401       .  A
S976        H992   1.406       .  S
S978        H989   1.407       .  S
C980        C981   1.402       .  A
C980        S985   1.806       .  S
C981        C982   1.404       .  A
C981        H986   1.083       .  S
C982        C983   1.413       .  A
C983        C984   1.401       .  A
C983        S987   1.808       .  S
C984        H988   1.083       .  S
S985        H990   1.407       .  S
S987        H991   1.407       .  S
C993        C994   1.402       .  A
C993        C998   1.398       .  A
C993       H1003   1.084       .  S
C994        C999   1.475       .  S
C994        C995   1.410       .  A
C995        C996   1.396       .  A
C995       S1000   1.804       .  S
C996        C997   1.405       .  A
C996       H1001   1.085       .  S
C997        C998   1.411       .  A
C998       S1002   1.797       .  S
C999       C1004   1.409       .  A
C999       C1008   1.398       .  A
S1000      H1016   1.406       .  S
S1002      H1013   1.406       .  S
C1004      C1005   1.399       .  A
C1004      S1009   1.808       .  S
C1005      C1006   1.407       .  A
C1005      H1010   1.082       .  S
C1006      C1007   1.422       .  A
C1007      C1008   1.398       .  A
C1007      S1011   1.801       .  S
C1008      H1012   1.084       .  S
S1009      H1014   1.407       .  S
S1011      H1015   1.408       .  S
C1017      C1018   1.404       .  A
C1017      C1022   1.403       .  A
C1017      H1027   1.084       .  S
C1018      C1023   1.476       .  S
C1018      C1019   1.410       .  A
C1019      C1020   1.392       .  A
C1019      S1024   1.805       .  S
C1020      C1021   1.402       .  A
C1020      H1025   1.084       .  S
C1021      C1022   1.415       .  A
C1022      S1026   1.805       .  S
C1023      C1028   1.410       .  A
C1023      C1032   1.400       .  A
S1024      H1040   1.406       .  S
S1026      H1037   1.405       .  S
C1028      C1029   1.407       .  A
C1028      S1033   1.804       .  S
C1029      C1030   1.403       .  A
C1029      H1034   1.083       .  S
C1030      C1031   1.410       .  A
C1031      C1032   1.391       .  A
C1031      S1035   1.802       .  S
C1032      H1036   1.085       .  S
S1033      H1038   1.407       .  S
S1035      H1039   1.404       .  S
C1041      C1042   1.402       .  A
C1041      C1046   1.405       .  A
C1041      H1051   1.084       .  S
C1042      C1047   1.481       .  S
C1042      C1043   1.408       .  A
C1043      C1044   1.395       .  A
C1043      S1048   1.806       .  S
C1044      C1045   1.411       .  A
C1044      H1049   1.083       .  S
C1045      C1046   1.420       .  A
C1046      S1050   1.798       .  S
C1047      C1052   1.410       .  A
C1047      C1056   1.403       .  A
S1048      H1064   1.406       .  S
S1050      H1061   1.407       .  S
C1052      C1053   1.404       .  A
C1052      S1057   1.805       .  S
C1053      C1054   1.403       .  A
C1053      H1058   1.083       .  S
C1054      C1055   1.411       .  A
C1055      C1056   1.402       .  A
C1055      S1059   1.808       .  S
C1056      H1060   1.083       .  S
S1057      H1062   1.407       .  S
S1059      H1063   1.407       .  S
C1065      C1066   1.404       .  A
C1065      C1070   1.405       .  A
C1065      H1075   1.084       .  S
C1066      C1071   1.489       .  S
C1066      C1067   1.414       .  A
C1067      C1068   1.399       .  A
C1067      S1072   1.805       .  S
C1068      C1069   1.402       .  A
C1068      H1073   1.084       .  S
C1069      C1070   1.415       .  A
C1070      S1074   1.801       .  S
C1071      C1076   1.411       .  A
C1071      C1080   1.405       .  A
S1072      H1088   1.406       .  S
S1074      H1085   1.400       .  S
C1076      C1077   1.401       .  A
C1076      S1081   1.808       .  S
C1077      C1078   1.404       .  A
C1077      H1082   1.083       .  S
C1078      C1079   1.414       .  A
C1079      C1080   1.406       .  A
C1079      S1083   1.797       .  S
C1080      H1084   1.083       .  S
S1081      H1086   1.407       .  S
S1083      H1087   1.407       .  S
C1089      C1090   1.402       .  A
C1089      C1094   1.401       .  A
C1089      H1099   1.084       .  S
C1090      C1095   1.482       .  S
C1090      C1091   1.412       .  A
C1091      C1092   1.400       .  A
C1091      S1096   1.804       .  S
C1092      C1093   1.406       .  A
C1092      H1097   1.084       .  S
C1093      C1094   1.416       .  A
C1094      S1098   1.801       .  S
C1095      C1100   1.408       .  A
C1095      C1104   1.402       .  A
S1096      H1112   1.405       .  S
S1098      H1109   1.406       .  S
C1100      C1101   1.404       .  A
C1100      S1105   1.806       .  S
C1101      C1102   1.406       .  A
C1101      H1106   1.082       .  S
C1102      C1103   1.415       .  A
C1103      C1104   1.401       .  A
C1103      S1107   1.802       .  S
C1104      H1108   1.084       .  S
S1105      H1110   1.407       .  S
S1107      H1111   1.408       .  S
C1113      C1114   1.400       .  A
C1113      C1118   1.403       .  A
C1113      H1123   1.083       .  S
C1114      C1119   1.468       .  S
C1114      C1115   1.408       .  A
C1115      C1116   1.390       .  A
C1115      S1120   1.806       .  S
C1116      C1117   1.405       .  A
C1116      H1121   1.084       .  S
C1117      C1118   1.416       .  A
C1118      S1122   1.808       .  S
C1119      C1124   1.407       .  A
C1119      C1128   1.399       .  A
S1120      H1136   1.405       .  S
S1122      H1133   1.407       .  S
C1124      C1125   1.396       .  A
C1124      S1129   1.808       .  S
C1125      C1126   1.404       .  A
C1125      H1130   1.083       .  S
C1126      C1127   1.414       .  A
C1127      C1128   1.397       .  A
C1127      S1131   1.804       .  S
C1128      H1132   1.084       .  S
S1129      H1134   1.407       .  S
S1131      H1135   1.408       .  S
C1137      C1138   1.401       .  A
C1137      C1142   1.397       .  A
C1137      H1147   1.084       .  S
C1138      C1143   1.477       .  S
C1138      C1139   1.412       .  A
C1139      C1140   1.400       .  A
C1139      S1144   1.804       .  S
C1140      C1141   1.403       .  A
C1140      H1145   1.083       .  S
C1141      C1142   1.413       .  A
C1142      S1146   1.804       .  S
C1143      C1148   1.407       .  A
C1143      C1152   1.400       .  A
S1144      H1160   1.406       .  S
S1146      H1157   1.407       .  S
C1148      C1149   1.401       .  A
C1148      S1153   1.806       .  S
C1149      C1150   1.406       .  A
C1149      H1154   1.083       .  S
C1150      C1151   1.417       .  A
C1151      C1152   1.401       .  A
C1151      S1155   1.809       .  S
C1152      H1156   1.083       .  S
S1153      H1158   1.407       .  S
S1155      H1159   1.406       .  S
C1161      C1162   1.400       .  A
C1161      C1166   1.390       .  A
C1161      H1171   1.084       .  S
C1162      C1167   1.465       .  S
C1162      C1163   1.412       .  A
C1163      C1164   1.399       .  A
C1163      S1168   1.806       .  S
C1164      C1165   1.402       .  A
C1164      H1169   1.084       .  S
C1165      C1166   1.409       .  A
C1166      S1170   1.804       .  S
C1167      C1172   1.408       .  A
C1167      C1176   1.400       .  A
S1168      H1184   1.404       .  S
S1170      H1181   1.405       .  S
C1172      C1173   1.393       .  A
C1172      S1177   1.809       .  S
C1173      C1174   1.401       .  A
C1173      H1178   1.084       .  S
C1174      C1175   1.411       .  A
C1175      C1176   1.397       .  A
C1175      S1179   1.803       .  S
C1176      H1180   1.084       .  S
S1177      H1182   1.407       .  S
S1179      H1183   1.407       .  S
C1185      C1186   1.399       .  A
C1185      C1190   1.395       .  A
C1185      H1195   1.084       .  S
C1186      C1191   1.470       .  S
C1186      C1187   1.411       .  A
C1187      C1188   1.396       .  A
C1187      S1192   1.804       .  S
C1188      C1189   1.404       .  A
C1188      H1193   1.084       .  S
C1189      C1190   1.415       .  A
C1190      S1194   1.804       .  S
C1191      C1196   1.407       .  A
C1191      C1200   1.399       .  A
S1192      H1208   1.405       .  S
S1194      H1205   1.408       .  S
C1196      C1197   1.395       .  A
C1196      S1201   1.805       .  S
C1197      C1198   1.404       .  A
C1197      H1202   1.083       .  S
C1198      C1199   1.415       .  A
C1199      C1200   1.397       .  A
C1199      S1203   1.798       .  S
C1200      H1204   1.084       .  S
S1201      H1206   1.407       .  S
S1203      H1207   1.405       .  S
C1209      C1210   1.405       .  A
C1209      C1214   1.406       .  A
C1209      H1219   1.084       .  S
C1210      C1215   1.489       .  S
C1210      C1211   1.413       .  A
C1211      C1212   1.398       .  A
C1211      S1216   1.806   1_554  S
C1212      C1213   1.404       .  A
C1212      H1217   1.082       .  S
C1213      C1214   1.415       .  A
C1214      S1218   1.802       .  S
C1215      C1220   1.412       .  A
C1215      C1224   1.405   1_554  A
S1216      H1232   1.406       .  S
S1218      H1229   1.405       .  S
C1220      C1221   1.402       .  A
C1220      S1225   1.808       .  S
C1221      C1222   1.405   1_554  A
C1221      H1226   1.083       .  S
C1222      C1223   1.414       .  A
C1223      C1224   1.405       .  A
C1223      S1227   1.802       .  S
C1224      H1228   1.083       .  S
S1225      H1230   1.407       .  S
S1227      H1231   1.407       .  S
C1233      C1234   1.399       .  A
C1233      C1238   1.398       .  A
C1233      H1243   1.084       .  S
C1234      C1239   1.471       .  S
C1234      C1235   1.405       .  A
C1235      C1236   1.396       .  A
C1235      S1240   1.803       .  S
C1236      C1237   1.410       .  A
C1236      H1241   1.083       .  S
C1237      C1238   1.422       .  A
C1238      S1242   1.810       .  S
C1239      C1244   1.408       .  A
C1239      C1248   1.398       .  A
S1240      H1256   1.406       .  S
S1242      H1253   1.407       .  S
C1244      C1245   1.397       .  A
C1244      S1249   1.808       .  S
C1245      C1246   1.406       .  A
C1245      H1250   1.083       .  S
C1246      C1247   1.419       .  A
C1247      C1248   1.396       .  A
C1247      S1251   1.801   1_556  S
C1248      H1252   1.084       .  S
S1249      H1254   1.407       .  S
S1251      H1255   1.408       .  S
C1257      C1258   1.402       .  A
C1257      C1262   1.400       .  A
C1257      H1267   1.084       .  S
C1258      C1263   1.487       .  S
C1258      C1259   1.414       .  A
C1259      C1260   1.405       .  A
C1259      S1264   1.803       .  S
C1260      C1261   1.405       .  A
C1260      H1265   1.084       .  S
C1261      C1262   1.415       .  A
C1262      S1266   1.802       .  S
C1263      C1268   1.408       .  A
C1263      C1272   1.403       .  A
S1264      H1280   1.406       .  S
S1266      H1277   1.407       .  S
C1268      C1269   1.404       .  A
C1268      S1273   1.806       .  S
C1269      C1270   1.409       .  A
C1269      H1274   1.082       .  S
C1270      C1271   1.419       .  A
C1271      C1272   1.404       .  A
C1271      S1275   1.802       .  S
C1272      H1276   1.084       .  S
S1273      H1278   1.407       .  S
S1275      H1279   1.405   1_655  S
C1281      C1282   1.402       .  A
C1281      C1286   1.399       .  A
C1281      H1291   1.084       .  S
C1282      C1287   1.477       .  S
C1282      C1283   1.412       .  A
C1283      C1284   1.398       .  A
C1283      S1288   1.805       .  S
C1284      C1285   1.405       .  A
C1284      H1289   1.084       .  S
C1285      C1286   1.413       .  A
C1286      S1290   1.800       .  S
C1287      C1292   1.408       .  A
C1287      C1296   1.403       .  A
S1288      H1304   1.405       .  S
S1290      H1301   1.406       .  S
C1292      C1293   1.399       .  A
C1292      S1297   1.808       .  S
C1293      C1294   1.404       .  A
C1293      H1298   1.083       .  S
C1294      C1295   1.412       .  A
C1295      C1296   1.401       .  A
C1295      S1299   1.803       .  S
C1296      H1300   1.084       .  S
S1297      H1302   1.407   1_556  S
S1299      H1303   1.407       .  S
C1305      C1306   1.401       .  A
C1305      C1310   1.395       .  A
C1305      H1315   1.085       .  S
C1306      C1311   1.484       .  S
C1306      C1307   1.414       .  A
C1307      C1308   1.404       .  A
C1307      S1312   1.803       .  S
C1308      C1309   1.406       .  A
C1308      H1313   1.084       .  S
C1309      C1310   1.414       .  A
C1310      S1314   1.800       .  S
C1311      C1316   1.411       .  A
C1311      C1320   1.404       .  A
S1312      H1328   1.406       .  S
S1314      H1325   1.405       .  S
C1316      C1317   1.401       .  A
C1316      S1321   1.808       .  S
C1317      C1318   1.403       .  A
C1317      H1322   1.083       .  S
C1318      C1319   1.413       .  A
C1319      C1320   1.402       .  A
C1319      S1323   1.805       .  S
C1320      H1324   1.084       .  S
S1321      H1326   1.407       .  S
S1323      H1327   1.407       .  S
C1329      C1330   1.405       .  A
C1329      C1334   1.405       .  A
C1329      H1339   1.083       .  S
C1330      C1335   1.479       .  S
C1330      C1331   1.411       .  A
C1331      C1332   1.392       .  A
C1331      S1336   1.806       .  S
C1332      C1333   1.403       .  A
C1332      H1337   1.083       .  S
C1333      C1334   1.415       .  A
C1334      S1338   1.799       .  S
C1335      C1340   1.410       .  A
C1335      C1344   1.403       .  A
S1336      H1352   1.405       .  S
S1338      H1349   1.406       .  S
C1340      C1341   1.401       .  A
C1340      S1345   1.807       .  S
C1341      C1342   1.402       .  A
C1341      H1346   1.083       .  S
C1342      C1343   1.412       .  A
C1343      C1344   1.401       .  A
C1343      S1347   1.801   1_556  S
C1344      H1348   1.083       .  S
S1345      H1350   1.407       .  S
S1347      H1351   1.405       .  S
C1353      C1354   1.402       .  A
C1353      C1358   1.403   1_545  A
C1353      H1363   1.083       .  S
C1354      C1359   1.478       .  S
C1354      C1355   1.409   1_545  A
C1355      C1356   1.396       .  A
C1355      S1360   1.805   1_565  S
C1356      C1357   1.407       .  A
C1356      H1361   1.082       .  S
C1357      C1358   1.419       .  A
C1358      S1362   1.803       .  S
C1359      C1364   1.407       .  A
C1359      C1368   1.397       .  A
S1360      H1376   1.403       .  S
S1362      H1373   1.404       .  S
C1364      C1365   1.406       .  A
C1364      S1369   1.805       .  S
C1365      C1366   1.410       .  A
C1365      H1370   1.082       .  S
C1366      C1367   1.422       .  A
C1367      C1368   1.397       .  A
C1367      S1371   1.803       .  S
C1368      H1372   1.084       .  S
S1369      H1374   1.406       .  S
S1371      H1375   1.402       .  S
C1377      C1378   1.402       .  A
C1377      C1382   1.401       .  A
C1377      H1387   1.084       .  S
C1378      C1383   1.479       .  S
C1378      C1379   1.410       .  A
C1379      C1380   1.398       .  A
C1379      S1384   1.804       .  S
C1380      C1381   1.407       .  A
C1380      H1385   1.084       .  S
C1381      C1382   1.416       .  A
C1382      S1386   1.801       .  S
C1383      C1388   1.410       .  A
C1383      C1392   1.398       .  A
S1384      H1400   1.405       .  S
S1386      H1397   1.407       .  S
C1388      C1389   1.406       .  A
C1388      S1393   1.806       .  S
C1389      C1390   1.405       .  A
C1389      H1394   1.083       .  S
C1390      C1391   1.417       .  A
C1391      C1392   1.397       .  A
C1391      S1395   1.802       .  S
C1392      H1396   1.084       .  S
S1393      H1398   1.405       .  S
S1395      H1399   1.406       .  S
C1401      C1402   1.402       .  A
C1401      C1406   1.404       .  A
C1401      H1411   1.083       .  S
C1402      C1407   1.477       .  S
C1402      C1403   1.408       .  A
C1403      C1404   1.395       .  A
C1403      S1408   1.811       .  S
C1404      C1405   1.409       .  A
C1404      H1409   1.082       .  S
C1405      C1406   1.419       .  A
C1406      S1410   1.801       .  S
C1407      C1412   1.407       .  A
C1407      C1416   1.401       .  A
S1408      H1424   1.407       .  S
S1410      H1421   1.408       .  S
C1412      C1413   1.402       .  A
C1412      S1417   1.806       .  S
C1413      C1414   1.409       .  A
C1413      H1418   1.082       .  S
C1414      C1415   1.415       .  A
C1415      C1416   1.397       .  A
C1415      S1419   1.804       .  S
C1416      H1420   1.084       .  S
S1417      H1422   1.407       .  S
S1419      H1423   1.408       .  S
C1425      C1426   1.400       .  A
C1425      C1430   1.399       .  A
C1425      H1435   1.084       .  S
C1426      C1431   1.470       .  S
C1426      C1427   1.409       .  A
C1427      C1428   1.392       .  A
C1427      S1432   1.806       .  S
C1428      C1429   1.406       .  A
C1428      H1433   1.084       .  S
C1429      C1430   1.417       .  A
C1430      S1434   1.801       .  S
C1431      C1436   1.407       .  A
C1431      C1440   1.397       .  A
S1432      H1448   1.405       .  S
S1434      H1445   1.407       .  S
C1436      C1437   1.399   1_554  A
C1436      S1441   1.807       .  S
C1437      C1438   1.406       .  A
C1437      H1442   1.083       .  S
C1438      C1439   1.419       .  A
C1439      C1440   1.395   1_556  A
C1439      S1443   1.804       .  S
C1440      H1444   1.085       .  S
S1441      H1446   1.407       .  S
S1443      H1447   1.404       .  S
C1449      C1450   1.397       .  A
C1449      C1454   1.397       .  A
C1449      H1459   1.084       .  S
C1450      C1455   1.469       .  S
C1450      C1451   1.407       .  A
C1451      C1452   1.394       .  A
C1451      S1456   1.805       .  S
C1452      C1453   1.408       .  A
C1452      H1457   1.084       .  S
C1453      C1454   1.420       .  A
C1454      S1458   1.801       .  S
C1455      C1460   1.405       .  A
C1455      C1464   1.398       .  A
S1456      H1472   1.406       .  S
S1458      H1469   1.408       .  S
C1460      C1461   1.395       .  A
C1460      S1465   1.808       .  S
C1461      C1462   1.406       .  A
C1461      H1466   1.082       .  S
C1462      C1463   1.419       .  A
C1463      C1464   1.402       .  A
C1463      S1467   1.808       .  S
C1464      H1468   1.082       .  S
S1465      H1470   1.407       .  S
S1467      H1471   1.407       .  S
C1473      C1474   1.404       .  A
C1473      C1478   1.403       .  A
C1473      H1483   1.084       .  S
C1474      C1479   1.491       .  S
C1474      C1475   1.413       .  A
C1475      C1476   1.401       .  A
C1475      S1480   1.804       .  S
C1476      C1477   1.407       .  A
C1476      H1481   1.083       .  S
C1477      C1478   1.419       .  A
C1478      S1482   1.803       .  S
C1479      C1484   1.413       .  A
C1479      C1488   1.405       .  A
S1480      H1496   1.406       .  S
S1482      H1493   1.405       .  S
C1484      C1485   1.405       .  A
C1484      S1489   1.807       .  S
C1485      C1486   1.402       .  A
C1485      H1490   1.081       .  S
C1486      C1487   1.413       .  A
C1487      C1488   1.402       .  A
C1487      S1491   1.804       .  S
C1488      H1492   1.084       .  S
S1489      H1494   1.407       .  S
S1491      H1495   1.406       .  S
C1497      C1498   1.405   1_554  A
C1497      C1502   1.400       .  A
C1497      H1507   1.084   1_554  S
C1498      C1503   1.476       .  S
C1498      C1499   1.413   1_556  A
C1499      C1500   1.391       .  A
C1499      S1504   1.806       .  S
C1500      C1501   1.401       .  A
C1500      H1505   1.085       .  S
C1501      C1502   1.411       .  A
C1502      S1506   1.803       .  S
C1503      C1508   1.409       .  A
C1503      C1512   1.401       .  A
S1504      H1520   1.406   1_554  S
S1506      H1517   1.406       .  S
C1508      C1509   1.402       .  A
C1508      S1513   1.806       .  S
C1509      C1510   1.405       .  A
C1509      H1514   1.082       .  S
C1510      C1511   1.413       .  A
C1511      C1512   1.392       .  A
C1511      S1515   1.807       .  S
C1512      H1516   1.084       .  S
S1513      H1518   1.407       .  S
S1515      H1519   1.403       .  S
C1521      C1522   1.400       .  A
C1521      C1526   1.394       .  A
C1521      H1531   1.084       .  S
C1522      C1527   1.473       .  S
C1522      C1523   1.411       .  A
C1523      C1524   1.401       .  A
C1523      S1528   1.805       .  S
C1524      C1525   1.404       .  A
C1524      H1529   1.084       .  S
C1525      C1526   1.412       .  A
C1526      S1530   1.801       .  S
C1527      C1532   1.406       .  A
C1527      C1536   1.400       .  A
S1528      H1544   1.403       .  S
S1530      H1541   1.407       .  S
C1532      C1533   1.400       .  A
C1532      S1537   1.807       .  S
C1533      C1534   1.406       .  A
C1533      H1538   1.083       .  S
C1534      C1535   1.416       .  A
C1535      C1536   1.398       .  A
C1535      S1539   1.804       .  S
C1536      H1540   1.084       .  S
S1537      H1542   1.407       .  S
S1539      H1543   1.408       .  S
C1545      C1546   1.405       .  A
C1545      C1550   1.404       .  A
C1545      H1555   1.084       .  S
C1546      C1551   1.479       .  S
C1546      C1547   1.412       .  A
C1547      C1548   1.396       .  A
C1547      S1552   1.807       .  S
C1548      C1549   1.404       .  A
C1548      H1553   1.084       .  S
C1549      C1550   1.414       .  A
C1550      S1554   1.803       .  S
C1551      C1556   1.408   1_545  A
C1551      C1560   1.400       .  A
S1552      H1568   1.403       .  S
S1554      H1565   1.407       .  S
C1556      C1557   1.406       .  A
C1556      S1561   1.805   1_565  S
C1557      C1558   1.406       .  A
C1557      H1562   1.083       .  S
C1558      C1559   1.416       .  A
C1559      C1560   1.397   1_565  A
C1559      S1563   1.804       .  S
C1560      H1564   1.084       .  S
S1561      H1566   1.407   1_545  S
S1563      H1567   1.407       .  S
C1569      C1570   1.402       .  A
C1569      C1574   1.402       .  A
C1569      H1579   1.084       .  S
C1570      C1575   1.478       .  S
C1570      C1571   1.412       .  A
C1571      C1572   1.397       .  A
C1571      S1576   1.806       .  S
C1572      C1573   1.405       .  A
C1572      H1577   1.084       .  S
C1573      C1574   1.417       .  A
C1574      S1578   1.802       .  S
C1575      C1580   1.408       .  A
C1575      C1584   1.399       .  A
S1576      H1592   1.405       .  S
S1578      H1589   1.407       .  S
C1580      C1581   1.403       .  A
C1580      S1585   1.806       .  S
C1581      C1582   1.406       .  A
C1581      H1586   1.083       .  S
C1582      C1583   1.420       .  A
C1583      C1584   1.399       .  A
C1583      S1587   1.802       .  S
C1584      H1588   1.084       .  S
S1585      H1590   1.407       .  S
S1587      H1591   1.407       .  S
C1593      C1594   1.402       .  A
C1593      C1598   1.403       .  A
C1593      H1603   1.084       .  S
C1594      C1599   1.477       .  S
C1594      C1595   1.411       .  A
C1595      C1596   1.393       .  A
C1595      S1600   1.804       .  S
C1596      C1597   1.403       .  A
C1596      H1601   1.085       .  S
C1597      C1598   1.415       .  A
C1598      S1602   1.800       .  S
C1599      C1604   1.408       .  A
C1599      C1608   1.401       .  A
S1600      H1616   1.404       .  S
S1602      H1613   1.405       .  S
C1604      C1605   1.398       .  A
C1604      S1609   1.809       .  S
C1605      C1606   1.405       .  A
C1605      H1610   1.083       .  S
C1606      C1607   1.416       .  A
C1607      C1608   1.403       .  A
C1607      S1611   1.798       .  S
C1608      H1612   1.084       .  S
S1609      H1614   1.407       .  S
S1611      H1615   1.407       .  S
C1617      C1618   1.402       .  A
C1617      C1622   1.407       .  A
C1617      H1627   1.084       .  S
C1618      C1623   1.485       .  S
C1618      C1619   1.409       .  A
C1619      C1620   1.397       .  A
C1619      S1624   1.805       .  S
C1620      C1621   1.410       .  A
C1620      H1625   1.083       .  S
C1621      C1622   1.422       .  A
C1622      S1626   1.799       .  S
C1623      C1628   1.411       .  A
C1623      C1632   1.400       .  A
S1624      H1640   1.405       .  S
S1626      H1637   1.408       .  S
C1628      C1629   1.409       .  A
C1628      S1633   1.804       .  S
C1629      C1630   1.406       .  A
C1629      H1634   1.083       .  S
C1630      C1631   1.416       .  A
C1631      C1632   1.398       .  A
C1631      S1635   1.806       .  S
C1632      H1636   1.084       .  S
S1633      H1638   1.407       .  S
S1635      H1639   1.408       .  S
C1641      C1642   1.401       .  A
C1641      C1646   1.401       .  A
C1641      H1651   1.084       .  S
C1642      C1647   1.479       .  S
C1642      C1643   1.409       .  A
C1643      C1644   1.399       .  A
C1643      S1648   1.805       .  S
C1644      C1645   1.410       .  A
C1644      H1649   1.084       .  S
C1645      C1646   1.420       .  A
C1646      S1650   1.802       .  S
C1647      C1652   1.408       .  A
C1647      C1656   1.398       .  A
S1648      H1664   1.405       .  S
S1650      H1661   1.406       .  S
C1652      C1653   1.405       .  A
C1652      S1657   1.806       .  S
C1653      C1654   1.408       .  A
C1653      H1658   1.083       .  S
C1654      C1655   1.421       .  A
C1655      C1656   1.398       .  A
C1655      S1659   1.802       .  S
C1656      H1660   1.085       .  S
S1657      H1662   1.407       .  S
S1659      H1663   1.406       .  S
C1665      C1666   1.404       .  A
C1665      C1670   1.402       .  A
C1665      H1675   1.084       .  S
C1666      C1671   1.485       .  S
C1666      C1667   1.414       .  A
C1667      C1668   1.399       .  A
C1667      S1672   1.804       .  S
C1668      C1669   1.402       .  A
C1668      H1673   1.084       .  S
C1669      C1670   1.414       .  A
C1670      S1674   1.804   1_655  S
C1671      C1676   1.411       .  A
C1671      C1680   1.400       .  A
S1672      H1688   1.406       .  S
S1674      H1685   1.406       .  S
C1676      C1677   1.407       .  A
C1676      S1681   1.805       .  S
C1677      C1678   1.406       .  A
C1677      H1682   1.083       .  S
C1678      C1679   1.415       .  A
C1679      C1680   1.397       .  A
C1679      S1683   1.797       .  S
C1680      H1684   1.084       .  S
S1681      H1686   1.407       .  S
S1683      H1687   1.407       .  S
C1689      C1690   1.397       .  A
C1689      C1694   1.395       .  A
C1689      H1699   1.084       .  S
C1690      C1695   1.463       .  S
C1690      C1691   1.409   1_455  A
C1691      C1692   1.389       .  A
C1691      S1696   1.806       .  S
C1692      C1693   1.406       .  A
C1692      H1697   1.084       .  S
C1693      C1694   1.418   1_655  A
C1694      S1698   1.801       .  S
C1695      C1700   1.406       .  A
C1695      C1704   1.399       .  A
S1696      H1712   1.406       .  S
S1698      H1709   1.408       .  S
C1700      C1701   1.396       .  A
C1700      S1705   1.806   1_455  S
C1701      C1702   1.402       .  A
C1701      H1706   1.083       .  S
C1702      C1703   1.409       .  A
C1703      C1704   1.391       .  A
C1703      S1707   1.799       .  S
C1704      H1708   1.084       .  S
S1705      H1710   1.407       .  S
S1707      H1711   1.405       .  S
C1713      C1714   1.402       .  A
C1713      C1718   1.402   1_556  A
C1713      H1723   1.083       .  S
C1714      C1719   1.470       .  S
C1714      C1715   1.409   1_556  A
C1715      C1716   1.392       .  A
C1715      S1720   1.807   1_655  S
C1716      C1717   1.405       .  A
C1716      H1721   1.084   1_655  S
C1717      C1718   1.413       .  A
C1718      S1722   1.807       .  S
C1719      C1724   1.406       .  A
C1719      C1728   1.398       .  A
S1720      H1736   1.405   1_554  S
S1722      H1733   1.407       .  S
C1724      C1725   1.400   1_655  A
C1724      S1729   1.806   1_655  S
C1725      C1726   1.407       .  A
C1725      H1730   1.082       .  S
C1726      C1727   1.416   1_455  A
C1727      C1728   1.397       .  A
C1727      S1731   1.810       .  S
C1728      H1732   1.083       .  S
S1729      H1734   1.407       .  S
S1731      H1735   1.407       .  S
C1737      C1738   1.402       .  A
C1737      C1742   1.396       .  A
C1737      H1747   1.084       .  S
C1738      C1743   1.471       .  S
C1738      C1739   1.411       .  A
C1739      C1740   1.394       .  A
C1739      S1744   1.805       .  S
C1740      C1741   1.401       .  A
C1740      H1745   1.084       .  S
C1741      C1742   1.410       .  A
C1742      S1746   1.801   1_455  S
C1743      C1748   1.408       .  A
C1743      C1752   1.401       .  A
S1744      H1760   1.406       .  S
S1746      H1757   1.406       .  S
C1748      C1749   1.394   1_554  A
C1748      S1753   1.808   1_455  S
C1749      C1750   1.405       .  A
C1749      H1754   1.082       .  S
C1750      C1751   1.413       .  A
C1751      C1752   1.398   1_556  A
C1751      S1755   1.802       .  S
C1752      H1756   1.083       .  S
S1753      H1758   1.406   1_554  S
S1755      H1759   1.408       .  S
C1761      C1762   1.404   1_455  A
C1761      C1766   1.394       .  A
C1761      H1771   1.084       .  S
C1762      C1767   1.478       .  S
C1762      C1763   1.414       .  A
C1763      C1764   1.396       .  A
C1763      S1768   1.804       .  S
C1764      C1765   1.400   1_655  A
C1764      H1769   1.084       .  S
C1765      C1766   1.405       .  A
C1766      S1770   1.800       .  S
C1767      C1772   1.411       .  A
C1767      C1776   1.403       .  A
S1768      H1784   1.407       .  S
S1770      H1781   1.405       .  S
C1772      C1773   1.401       .  A
C1772      S1777   1.807       .  S
C1773      C1774   1.401       .  A
C1773      H1778   1.083       .  S
C1774      C1775   1.411       .  A
C1775      C1776   1.392       .  A
C1775      S1779   1.807       .  S
C1776      H1780   1.084       .  S
S1777      H1782   1.407       .  S
S1779      H1783   1.406       .  S
C1785      C1786   1.401       .  A
C1785      C1790   1.398       .  A
C1785      H1795   1.084       .  S
C1786      C1791   1.481       .  S
C1786      C1787   1.412       .  A
C1787      C1788   1.404       .  A
C1787      S1792   1.803       .  S
C1788      C1789   1.405       .  A
C1788      H1793   1.084       .  S
C1789      C1790   1.414       .  A
C1790      S1794   1.805       .  S
C1791      C1796   1.408       .  A
C1791      C1800   1.401       .  A
S1792      H1808   1.405       .  S
S1794      H1805   1.407       .  S
C1796      C1797   1.404       .  A
C1796      S1801   1.807       .  S
C1797      C1798   1.408       .  A
C1797      H1802   1.083       .  S
C1798      C1799   1.419       .  A
C1799      C1800   1.401       .  A
C1799      S1803   1.804       .  S
C1800      H1804   1.084       .  S
S1801      H1806   1.407       .  S
S1803      H1807   1.404       .  S
C1809      C1810   1.401       .  A
C1809      C1814   1.405       .  A
C1809      H1819   1.083       .  S
C1810      C1815   1.480       .  S
C1810      C1811   1.411       .  A
C1811      C1812   1.400       .  A
C1811      S1816   1.805       .  S
C1812      C1813   1.407       .  A
C1812      H1817   1.084       .  S
C1813      C1814   1.417       .  A
C1814      S1818   1.809       .  S
C1815      C1820   1.406       .  A
C1815      C1824   1.401       .  A
S1816      H1832   1.404       .  S
S1818      H1829   1.407       .  S
C1820      C1821   1.403       .  A
C1820      S1825   1.806       .  S
C1821      C1822   1.410       .  A
C1821      H1826   1.083       .  S
C1822      C1823   1.418       .  A
C1823      C1824   1.401       .  A
C1823      S1827   1.804       .  S
C1824      H1828   1.084       .  S
S1825      H1830   1.406       .  S
S1827      H1831   1.408       .  S
C1833      C1834   1.400       .  A
C1833      C1838   1.402       .  A
C1833      H1843   1.083       .  S
C1834      C1839   1.474       .  S
C1834      C1835   1.407       .  A
C1835      C1836   1.395       .  A
C1835      S1840   1.804       .  S
C1836      C1837   1.409       .  A
C1836      H1841   1.084       .  S
C1837      C1838   1.417       .  A
C1838      S1842   1.807       .  S
C1839      C1844   1.407       .  A
C1839      C1848   1.400       .  A
S1840      H1856   1.406       .  S
S1842      H1853   1.407       .  S
C1844      C1845   1.396       .  A
C1844      S1849   1.810       .  S
C1845      C1846   1.408       .  A
C1845      H1850   1.082       .  S
C1846      C1847   1.418       .  A
C1847      C1848   1.401       .  A
C1847      S1851   1.799       .  S
C1848      H1852   1.084       .  S
S1849      H1854   1.406       .  S
S1851      H1855   1.406       .  S
C1857      C1858   1.402       .  A
C1857      C1862   1.397       .  A
C1857      H1867   1.084       .  S
C1858      C1863   1.480       .  S
C1858      C1859   1.411       .  A
C1859      C1860   1.402       .  A
C1859      S1864   1.802       .  S
C1860      C1861   1.405       .  A
C1860      H1865   1.084       .  S
C1861      C1862   1.412       .  A
C1862      S1866   1.802       .  S
C1863      C1868   1.409       .  A
C1863      C1872   1.401       .  A
S1864      H1880   1.406       .  S
S1866      H1877   1.406       .  S
C1868      C1869   1.407       .  A
C1868      S1873   1.804       .  S
C1869      C1870   1.405       .  A
C1869      H1874   1.083       .  S
C1870      C1871   1.412       .  A
C1871      C1872   1.396       .  A
C1871      S1875   1.802       .  S
C1872      H1876   1.084       .  S
S1873      H1878   1.407       .  S
S1875      H1879   1.407       .  S
C1881      C1882   1.401       .  A
C1881      C1886   1.397       .  A
C1881      H1891   1.084       .  S
C1882      C1887   1.471       .  S
C1882      C1883   1.411       .  A
C1883      C1884   1.396       .  A
C1883      S1888   1.805       .  S
C1884      C1885   1.402       .  A
C1884      H1889   1.084       .  S
C1885      C1886   1.411       .  A
C1886      S1890   1.805       .  S
C1887      C1892   1.408       .  A
C1887      C1896   1.398       .  A
S1888      H1904   1.405       .  S
S1890      H1901   1.407       .  S
C1892      C1893   1.401       .  A
C1892      S1897   1.806       .  S
C1893      C1894   1.402       .  A
C1893      H1898   1.082       .  S
C1894      C1895   1.411       .  A
C1895      C1896   1.394       .  A
C1895      S1899   1.798       .  S
C1896      H1900   1.085       .  S
S1897      H1902   1.407       .  S
S1899      H1903   1.407       .  S
C1905      C1906   1.399       .  A
C1905      C1910   1.397       .  A
C1905      H1915   1.084       .  S
C1906      C1911   1.476       .  S
C1906      C1907   1.413       .  A
C1907      C1908   1.401       .  A
C1907      S1912   1.805       .  S
C1908      C1909   1.405       .  A
C1908      H1913   1.084       .  S
C1909      C1910   1.415       .  A
C1910      S1914   1.801       .  S
C1911      C1916   1.407       .  A
C1911      C1920   1.401       .  A
S1912      H1928   1.403       .  S
S1914      H1925   1.406       .  S
C1916      C1917   1.402       .  A
C1916      S1921   1.805       .  S
C1917      C1918   1.406       .  A
C1917      H1922   1.083       .  S
C1918      C1919   1.412       .  A
C1919      C1920   1.399       .  A
C1919      S1923   1.799       .  S
C1920      H1924   1.084       .  S
S1921      H1926   1.407       .  S
S1923      H1927   1.407       .  S
C1929      C1930   1.405       .  A
C1929      C1934   1.396       .  A
C1929      H1939   1.084       .  S
C1930      C1935   1.481       .  S
C1930      C1931   1.414       .  A
C1931      C1932   1.399       .  A
C1931      S1936   1.803       .  S
C1932      C1933   1.401       .  A
C1932      H1937   1.084       .  S
C1933      C1934   1.407       .  A
C1934      S1938   1.804       .  S
C1935      C1940   1.410       .  A
C1935      C1944   1.402       .  A
S1936      H1952   1.406       .  S
S1938      H1949   1.407       .  S
C1940      C1941   1.405       .  A
C1940      S1945   1.805       .  S
C1941      C1942   1.404       .  A
C1941      H1946   1.083       .  S
C1942      C1943   1.410       .  A
C1943      C1944   1.394       .  A
C1943      S1947   1.802       .  S
C1944      H1948   1.084       .  S
S1945      H1950   1.407       .  S
S1947      H1951   1.407       .  S
C1953      C1954   1.403       .  A
C1953      C1958   1.400       .  A
C1953      H1963   1.084       .  S
C1954      C1959   1.489       .  S
C1954      C1955   1.415       .  A
C1955      C1956   1.403       .  A
C1955      S1960   1.803       .  S
C1956      C1957   1.404       .  A
C1956      H1961   1.084       .  S
C1957      C1958   1.416       .  A
C1958      S1962   1.804       .  S
C1959      C1964   1.413       .  A
C1959      C1968   1.404       .  A
S1960      H1976   1.406       .  S
S1962      H1973   1.407       .  S
C1964      C1965   1.405       .  A
C1964      S1969   1.808       .  S
C1965      C1966   1.404       .  A
C1965      H1970   1.083       .  S
C1966      C1967   1.413       .  A
C1967      C1968   1.401       .  A
C1967      S1971   1.802       .  S
C1968      H1972   1.084       .  S
S1969      H1974   1.407       .  S
S1971      H1975   1.406       .  S
C1977      C1978   1.403       .  A
C1977      C1982   1.400       .  A
C1977      H1987   1.083       .  S
C1978      C1983   1.479       .  S
C1978      C1979   1.411       .  A
C1979      C1980   1.397       .  A
C1979      S1984   1.805       .  S
C1980      C1981   1.406       .  A
C1980      H1985   1.083       .  S
C1981      C1982   1.414       .  A
C1982      S1986   1.801       .  S
C1983      C1988   1.409       .  A
C1983      C1992   1.403       .  A
S1984      H2000   1.406       .  S
S1986      H1997   1.407       .  S
C1988      C1989   1.401       .  A
C1988      S1993   1.807       .  S
C1989      C1990   1.403       .  A
C1989      H1994   1.083       .  S
C1990      C1991   1.413       .  A
C1991      C1992   1.403       .  A
C1991      S1995   1.809       .  S
C1992      H1996   1.083       .  S
S1993      H1998   1.406       .  S
S1995      H1999   1.407       .  S
C2001      C2002   1.403       .  A
C2001      C2006   1.399       .  A
C2001      H2011   1.084       .  S
C2002      C2007   1.487       .  S
C2002      C2003   1.413       .  A
C2003      C2004   1.404       .  A
C2003      S2008   1.803       .  S
C2004      C2005   1.407       .  A
C2004      H2009   1.084       .  S
C2005      C2006   1.415       .  A
C2006      S2010   1.802       .  S
C2007      C2012   1.410       .  A
C2007      C2016   1.406       .  A
S2008      H2024   1.406       .  S
S2010      H2021   1.406       .  S
C2012      C2013   1.401       .  A
C2012      S2017   1.807       .  S
C2013      C2014   1.403       .  A
C2013      H2018   1.083       .  S
C2014      C2015   1.414       .  A
C2015      C2016   1.405       .  A
C2015      S2019   1.804       .  S
C2016      H2020   1.084       .  S
S2017      H2022   1.407       .  S
S2019      H2023   1.407       .  S
C2025      C2026   1.402       .  A
C2025      C2030   1.395       .  A
C2025      H2035   1.085       .  S
C2026      C2031   1.471       .  S
C2026      C2027   1.407       .  A
C2027      C2028   1.396       .  A
C2027      S2032   1.804       .  S
C2028      C2029   1.409       .  A
C2028      H2033   1.084       .  S
C2029      C2030   1.414       .  A
C2030      S2034   1.804       .  S
C2031      C2036   1.409       .  A
C2031      C2040   1.398       .  A
S2032      H2048   1.406       .  S
S2034      H2045   1.408       .  S
C2036      C2037   1.397       .  A
C2036      S2041   1.810       .  S
C2037      C2038   1.407       .  A
C2037      H2042   1.082       .  S
C2038      C2039   1.420       .  A
C2039      C2040   1.397       .  A
C2039      S2043   1.802   1_556  S
C2040      H2044   1.084       .  S
S2041      H2046   1.407       .  S
S2043      H2047   1.408       .  S
C2049      C2050   1.403       .  A
C2049      C2054   1.402       .  A
C2049      H2059   1.084       .  S
C2050      C2055   1.488       .  S
C2050      C2051   1.413       .  A
C2051      C2052   1.402       .  A
C2051      S2056   1.804       .  S
C2052      C2053   1.408       .  A
C2052      H2057   1.084       .  S
C2053      C2054   1.418       .  A
C2054      S2058   1.802       .  S
C2055      C2060   1.413       .  A
C2055      C2064   1.400       .  A
S2056      H2072   1.406       .  S
S2058      H2069   1.407       .  S
C2060      C2061   1.409       .  A
C2060      S2065   1.806       .  S
C2061      C2062   1.406       .  A
C2061      H2066   1.083       .  S
C2062      C2063   1.417       .  A
C2063      C2064   1.398       .  A
C2063      S2067   1.804       .  S
C2064      H2068   1.084       .  S
S2065      H2070   1.407       .  S
S2067      H2071   1.406       .  S
C2073      C2074   1.402       .  A
C2073      C2078   1.405       .  A
C2073      H2083   1.083       .  S
C2074      C2079   1.476       .  S
C2074      C2075   1.410       .  A
C2075      C2076   1.395       .  A
C2075      S2080   1.805       .  S
C2076      C2077   1.403       .  A
C2076      H2081   1.084       .  S
C2077      C2078   1.415       .  A
C2078      S2082   1.808       .  S
C2079      C2084   1.408       .  A
C2079      C2088   1.401       .  A
S2080      H2096   1.405       .  S
S2082      H2093   1.407       .  S
C2084      C2085   1.398       .  A
C2084      S2089   1.808       .  S
C2085      C2086   1.405       .  A
C2085      H2090   1.084       .  S
C2086      C2087   1.416       .  A
C2087      C2088   1.401       .  A
C2087      S2091   1.802       .  S
C2088      H2092   1.084       .  S
S2089      H2094   1.407       .  S
S2091      H2095   1.408       .  S
C2097      C2098   1.399       .  A
C2097      C2102   1.395       .  A
C2097      H2107   1.083       .  S
C2098      C2103   1.468       .  S
C2098      C2099   1.409       .  A
C2099      C2100   1.397       .  A
C2099      S2104   1.804       .  S
C2100      C2101   1.404       .  A
C2100      H2105   1.084       .  S
C2101      C2102   1.413       .  A
C2102      S2106   1.809       .  S
C2103      C2108   1.407       .  A
C2103      C2112   1.400       .  A
S2104      H2120   1.406       .  S
S2106      H2117   1.407       .  S
C2108      C2109   1.398       .  A
C2108      S2113   1.807       .  S
C2109      C2110   1.403       .  A
C2109      H2114   1.083       .  S
C2110      C2111   1.412       .  A
C2111      C2112   1.394       .  A
C2111      S2115   1.803       .  S
C2112      H2116   1.084       .  S
S2113      H2118   1.407       .  S
S2115      H2119   1.407       .  S
C2121      C2122   1.403       .  A
C2121      C2126   1.398       .  A
C2121      H2131   1.085       .  S
C2122      C2127   1.488       .  S
C2122      C2123   1.414       .  A
C2123      C2124   1.402       .  A
C2123      S2128   1.803       .  S
C2124      C2125   1.404       .  A
C2124      H2129   1.083       .  S
C2125      C2126   1.415       .  A
C2126      S2130   1.801       .  S
C2127      C2132   1.411       .  A
C2127      C2136   1.405       .  A
S2128      H2144   1.406       .  S
S2130      H2141   1.405       .  S
C2132      C2133   1.401       .  A
C2132      S2137   1.808       .  S
C2133      C2134   1.405       .  A
C2133      H2138   1.082       .  S
C2134      C2135   1.415       .  A
C2135      C2136   1.402       .  A
C2135      S2139   1.804       .  S
C2136      H2140   1.084       .  S
S2137      H2142   1.407       .  S
S2139      H2143   1.408       .  S
C2145      C2146   1.403       .  A
C2145      C2150   1.400       .  A
C2145      H2155   1.083       .  S
C2146      C2151   1.477       .  S
C2146      C2147   1.413       .  A
C2147      C2148   1.398       .  A
C2147      S2152   1.804       .  S
C2148      C2149   1.402       .  A
C2148      H2153   1.084       .  S
C2149      C2150   1.408       .  A
C2150      S2154   1.806       .  S
C2151      C2156   1.406       .  A
C2151      C2160   1.402       .  A
S2152      H2168   1.405       .  S
S2154      H2165   1.407       .  S
C2156      C2157   1.399       .  A
C2156      S2161   1.807       .  S
C2157      C2158   1.407       .  A
C2157      H2162   1.083       .  S
C2158      C2159   1.417       .  A
C2159      C2160   1.399       .  A
C2159      S2163   1.802       .  S
C2160      H2164   1.084       .  S
S2161      H2166   1.407       .  S
S2163      H2167   1.408       .  S
C2169      C2170   1.401       .  A
C2169      C2174   1.395       .  A
C2169      H2179   1.084       .  S
C2170      C2175   1.472       .  S
C2170      C2171   1.411       .  A
C2171      C2172   1.397       .  A
C2171      S2176   1.804       .  S
C2172      C2173   1.404       .  A
C2172      H2177   1.084       .  S
C2173      C2174   1.414       .  A
C2174      S2178   1.804       .  S
C2175      C2180   1.409       .  A
C2175      C2184   1.401       .  A
S2176      H2192   1.406       .  S
S2178      H2189   1.406       .  S
C2180      C2181   1.398       .  A
C2180      S2185   1.808       .  S
C2181      C2182   1.404       .  A
C2181      H2186   1.082       .  S
C2182      C2183   1.413       .  A
C2183      C2184   1.397       .  A
C2183      S2187   1.802       .  S
C2184      H2188   1.084       .  S
S2185      H2190   1.407       .  S
S2187      H2191   1.408       .  S
C2193      C2194   1.403       .  A
C2193      C2198   1.403       .  A
C2193      H2203   1.084       .  S
C2194      C2199   1.479       .  S
C2194      C2195   1.412       .  A
C2195      C2196   1.395       .  A
C2195      S2200   1.806   1_554  S
C2196      C2197   1.403       .  A
C2196      H2201   1.084       .  S
C2197      C2198   1.414       .  A
C2198      S2202   1.802       .  S
C2199      C2204   1.409       .  A
C2199      C2208   1.403   1_554  A
S2200      H2216   1.405       .  S
S2202      H2213   1.407       .  S
C2204      C2205   1.399       .  A
C2204      S2209   1.808       .  S
C2205      C2206   1.402   1_554  A
C2205      H2210   1.083       .  S
C2206      C2207   1.412       .  A
C2207      C2208   1.402       .  A
C2207      S2211   1.803       .  S
C2208      H2212   1.084       .  S
S2209      H2214   1.407       .  S
S2211      H2215   1.406       .  S
C2217      C2218   1.402       .  A
C2217      C2222   1.400       .  A
C2217      H2227   1.084       .  S
C2218      C2223   1.480       .  S
C2218      C2219   1.414       .  A
C2219      C2220   1.400       .  A
C2219      S2224   1.805       .  S
C2220      C2221   1.402       .  A
C2220      H2225   1.084       .  S
C2221      C2222   1.411       .  A
C2222      S2226   1.802       .  S
C2223      C2228   1.408       .  A
C2223      C2232   1.402       .  A
S2224      H2240   1.406       .  S
S2226      H2237   1.403       .  S
C2228      C2229   1.401       .  A
C2228      S2233   1.807       .  S
C2229      C2230   1.407       .  A
C2229      H2234   1.083       .  S
C2230      C2231   1.416       .  A
C2231      C2232   1.401       .  A
C2231      S2235   1.803       .  S
C2232      H2236   1.084       .  S
S2233      H2238   1.407       .  S
S2235      H2239   1.408       .  S
C2241      C2242   1.400       .  A
C2241      C2246   1.397       .  A
C2241      H2251   1.084       .  S
C2242      C2247   1.478       .  S
C2242      C2243   1.413       .  A
C2243      C2244   1.402       .  A
C2243      S2248   1.805       .  S
C2244      C2245   1.404       .  A
C2244      H2249   1.084       .  S
C2245      C2246   1.416       .  A
C2246      S2250   1.800       .  S
C2247      C2252   1.408       .  A
C2247      C2256   1.400       .  A
S2248      H2264   1.404       .  S
S2250      H2261   1.406       .  S
C2252      C2253   1.404       .  A
C2252      S2257   1.805       .  S
C2253      C2254   1.407       .  A
C2253      H2258   1.082       .  S
C2254      C2255   1.415       .  A
C2255      C2256   1.398       .  A
C2255      S2259   1.802       .  S
C2256      H2260   1.084       .  S
S2257      H2262   1.407       .  S
S2259      H2263   1.404       .  S
C2265      C2266   1.402       .  A
C2265      C2270   1.404       .  A
C2265      H2275   1.084       .  S
C2266      C2271   1.479       .  S
C2266      C2267   1.412       .  A
C2267      C2268   1.394       .  A
C2267      S2272   1.807       .  S
C2268      C2269   1.407       .  A
C2268      H2273   1.083       .  S
C2269      C2270   1.419       .  A
C2270      S2274   1.802       .  S
C2271      C2276   1.409       .  A
C2271      C2280   1.402       .  A
S2272      H2288   1.406       .  S
S2274      H2285   1.408       .  S
C2276      C2277   1.402       .  A
C2276      S2281   1.806       .  S
C2277      C2278   1.406       .  A
C2277      H2282   1.083       .  S
C2278      C2279   1.411       .  A
C2279      C2280   1.398       .  A
C2279      S2283   1.800       .  S
C2280      H2284   1.084       .  S
S2281      H2286   1.407       .  S
S2283      H2287   1.407       .  S
C2289      C2290   1.399       .  A
C2289      C2294   1.397       .  A
C2289      H2299   1.084       .  S
C2290      C2295   1.479       .  S
C2290      C2291   1.411       .  A
C2291      C2292   1.400       .  A
C2291      S2296   1.804       .  S
C2292      C2293   1.407       .  A
C2292      H2297   1.084       .  S
C2293      C2294   1.421       .  A
C2294      S2298   1.802       .  S
C2295      C2300   1.408       .  A
C2295      C2304   1.400       .  A
S2296      H2312   1.406       .  S
S2298      H2309   1.405       .  S
C2300      C2301   1.402       .  A
C2300      S2305   1.806       .  S
C2301      C2302   1.408       .  A
C2301      H2306   1.082       .  S
C2302      C2303   1.419       .  A
C2303      C2304   1.398       .  A
C2303      S2307   1.802       .  S
C2304      H2308   1.084       .  S
S2305      H2310   1.407       .  S
S2307      H2311   1.406       .  S
C2313      C2314   1.402       .  A
C2313      C2318   1.402       .  A
C2313      H2323   1.084       .  S
C2314      C2319   1.482       .  S
C2314      C2315   1.413       .  A
C2315      C2316   1.394       .  A
C2315      S2320   1.803       .  S
C2316      C2317   1.406       .  A
C2316      H2321   1.084       .  S
C2317      C2318   1.420       .  A
C2318      S2322   1.801       .  S
C2319      C2324   1.408       .  A
C2319      C2328   1.401       .  A
S2320      H2336   1.404       .  S
S2322      H2333   1.408       .  S
C2324      C2325   1.403       .  A
C2324      S2329   1.806       .  S
C2325      C2326   1.408       .  A
C2325      H2330   1.082       .  S
C2326      C2327   1.417       .  A
C2327      C2328   1.396       .  A
C2327      S2331   1.804       .  S
C2328      H2332   1.084       .  S
S2329      H2334   1.407       .  S
S2331      H2335   1.406       .  S
C2337      C2338   1.403       .  A
C2337      C2342   1.401       .  A
C2337      H2347   1.084       .  S
C2338      C2343   1.482       .  S
C2338      C2339   1.414       .  A
C2339      C2340   1.400       .  A
C2339      S2344   1.807       .  S
C2340      C2341   1.405       .  A
C2340      H2345   1.084       .  S
C2341      C2342   1.414       .  A
C2342      S2346   1.801       .  S
C2343      C2348   1.410       .  A
C2343      C2352   1.400       .  A
S2344      H2360   1.404       .  S
S2346      H2357   1.407       .  S
C2348      C2349   1.406       .  A
C2348      S2353   1.805       .  S
C2349      C2350   1.405       .  A
C2349      H2354   1.083       .  S
C2350      C2351   1.416       .  A
C2351      C2352   1.397       .  A
C2351      S2355   1.805       .  S
C2352      H2356   1.084       .  S
S2353      H2358   1.407       .  S
S2355      H2359   1.407       .  S
C2361      C2362   1.402       .  A
C2361      C2366   1.401       .  A
C2361      H2371   1.084       .  S
C2362      C2367   1.480       .  S
C2362      C2363   1.413       .  A
C2363      C2364   1.398       .  A
C2363      S2368   1.805       .  S
C2364      C2365   1.401       .  A
C2364      H2369   1.084       .  S
C2365      C2366   1.413       .  A
C2366      S2370   1.802   1_556  S
C2367      C2372   1.408       .  A
C2367      C2376   1.400       .  A
S2368      H2384   1.406       .  S
S2370      H2381   1.405       .  S
C2372      C2373   1.401       .  A
C2372      S2377   1.808       .  S
C2373      C2374   1.408       .  A
C2373      H2378   1.081       .  S
C2374      C2375   1.422       .  A
C2375      C2376   1.401       .  A
C2375      S2379   1.804       .  S
C2376      H2380   1.083       .  S
S2377      H2382   1.406       .  S
S2379      H2383   1.405       .  S
C2385      C2386   1.400       .  A
C2385      C2390   1.392       .  A
C2385      H2395   1.084       .  S
C2386      C2391   1.479       .  S
C2386      C2387   1.415       .  A
C2387      C2388   1.404       .  A
C2387      S2392   1.803       .  S
C2388      C2389   1.402       .  A
C2388      H2393   1.083       .  S
C2389      C2390   1.411       .  A
C2390      S2394   1.801       .  S
C2391      C2396   1.410       .  A
C2391      C2400   1.405       .  A
S2392      H2408   1.406       .  S
S2394      H2405   1.405       .  S
C2396      C2397   1.396       .  A
C2396      S2401   1.809       .  S
C2397      C2398   1.405       .  A
C2397      H2402   1.084       .  S
C2398      C2399   1.410       .  A
C2399      C2400   1.402       .  A
C2399      S2403   1.801       .  S
C2400      H2404   1.084       .  S
S2401      H2406   1.407       .  S
S2403      H2407   1.407       .  S
C2409      C2410   1.400       .  A
C2409      C2414   1.399       .  A
C2409      H2419   1.084       .  S
C2410      C2415   1.477       .  S
C2410      C2411   1.410       .  A
C2411      C2412   1.398       .  A
C2411      S2416   1.805       .  S
C2412      C2413   1.406       .  A
C2412      H2417   1.084       .  S
C2413      C2414   1.419       .  A
C2414      S2418   1.802       .  S
C2415      C2420   1.410       .  A
C2415      C2424   1.400       .  A
S2416      H2432   1.405       .  S
S2418      H2429   1.408       .  S
C2420      C2421   1.403       .  A
C2420      S2425   1.807       .  S
C2421      C2422   1.404       .  A
C2421      H2426   1.083       .  S
C2422      C2423   1.416       .  A
C2423      C2424   1.398       .  A
C2423      S2427   1.804       .  S
C2424      H2428   1.084       .  S
S2425      H2430   1.407       .  S
S2427      H2431   1.407       .  S
C2433      C2434   1.403       .  A
C2433      C2438   1.389   1_554  A
C2433      H2443   1.084       .  S
C2434      C2439   1.477       .  S
C2434      C2435   1.414       .  A
C2435      C2436   1.399   1_554  A
C2435      S2440   1.804       .  S
C2436      C2437   1.401       .  A
C2436      H2441   1.084       .  S
C2437      C2438   1.408       .  A
C2438      S2442   1.806       .  S
C2439      C2444   1.411       .  A
C2439      C2448   1.405       .  A
S2440      H2456   1.406       .  S
S2442      H2453   1.404       .  S
C2444      C2445   1.395       .  A
C2444      S2449   1.809       .  S
C2445      C2446   1.398       .  A
C2445      H2450   1.082       .  S
C2446      C2447   1.410       .  A
C2447      C2448   1.397       .  A
C2447      S2451   1.808       .  S
C2448      H2452   1.083       .  S
S2449      H2454   1.407       .  S
S2451      H2455   1.401       .  S
C2457      C2458   1.397       .  A
C2457      C2462   1.392       .  A
C2457      H2467   1.084       .  S
C2458      C2463   1.460       .  S
C2458      C2459   1.409       .  A
C2459      C2460   1.392       .  A
C2459      S2464   1.806       .  S
C2460      C2461   1.404       .  A
C2460      H2465   1.084       .  S
C2461      C2462   1.415       .  A
C2462      S2466   1.799       .  S
C2463      C2468   1.405       .  A
C2463      C2472   1.398       .  A
S2464      H2480   1.405       .  S
S2466      H2477   1.406       .  S
C2468      C2469   1.394       .  A
C2468      S2473   1.808       .  S
C2469      C2470   1.404       .  A
C2469      H2474   1.083       .  S
C2470      C2471   1.413       .  A
C2471      C2472   1.393       .  A
C2471      S2475   1.800       .  S
C2472      H2476   1.084       .  S
S2473      H2478   1.407       .  S
S2475      H2479   1.407       .  S
C2481      C2482   1.398       .  A
C2481      C2486   1.398       .  A
C2481      H2491   1.084       .  S
C2482      C2487   1.483       .  S
C2482      C2483   1.413       .  A
C2483      C2484   1.404       .  A
C2483      S2488   1.803       .  S
C2484      C2485   1.405       .  A
C2484      H2489   1.080       .  S
C2485      C2486   1.421       .  A
C2486      S2490   1.802       .  S
C2487      C2492   1.409       .  A
C2487      C2496   1.400       .  A
S2488      H2504   1.405       .  S
S2490      H2501   1.408       .  S
C2492      C2493   1.406       .  A
C2492      S2497   1.806       .  S
C2493      C2494   1.406       .  A
C2493      H2498   1.082       .  S
C2494      C2495   1.417       .  A
C2495      C2496   1.400       .  A
C2495      S2499   1.802       .  S
C2496      H2500   1.084       .  S
S2497      H2502   1.407       .  S
S2499      H2503   1.407       .  S
C2505      C2506   1.400       .  A
C2505      C2510   1.400       .  A
C2505      H2515   1.084       .  S
C2506      C2511   1.474       .  S
C2506      C2507   1.411       .  A
C2507      C2508   1.396       .  A
C2507      S2512   1.806       .  S
C2508      C2509   1.405       .  A
C2508      H2513   1.084       .  S
C2509      C2510   1.416       .  A
C2510      S2514   1.803       .  S
C2511      C2516   1.407       .  A
C2511      C2520   1.401       .  A
S2512      H2528   1.405       .  S
S2514      H2525   1.408       .  S
C2516      C2517   1.397       .  A
C2516      S2521   1.808       .  S
C2517      C2518   1.405       .  A
C2517      H2522   1.083       .  S
C2518      C2519   1.416       .  A
C2519      C2520   1.400       .  A
C2519      S2523   1.801       .  S
C2520      H2524   1.084       .  S
S2521      H2526   1.407       .  S
S2523      H2527   1.407       .  S
C2529      C2530   1.399       .  A
C2529      C2534   1.398       .  A
C2529      H2539   1.084       .  S
C2530      C2535   1.479       .  S
C2530      C2531   1.411       .  A
C2531      C2532   1.398       .  A
C2531      S2536   1.806       .  S
C2532      C2533   1.410       .  A
C2532      H2537   1.083       .  S
C2533      C2534   1.422       .  A
C2534      S2538   1.802       .  S
C2535      C2540   1.408   1_556  A
C2535      C2544   1.402       .  A
S2536      H2552   1.406       .  S
S2538      H2549   1.406       .  S
C2540      C2541   1.399       .  A
C2540      S2545   1.808       .  S
C2541      C2542   1.407       .  A
C2541      H2546   1.082       .  S
C2542      C2543   1.418       .  A
C2543      C2544   1.401   1_554  A
C2543      S2547   1.800       .  S
C2544      H2548   1.084       .  S
S2545      H2550   1.406       .  S
S2547      H2551   1.408       .  S
C2553      C2554   1.404       .  A
C2553      C2558   1.407       .  A
C2553      H2563   1.084       .  S
C2554      C2559   1.486       .  S
C2554      C2555   1.410       .  A
C2555      C2556   1.398       .  A
C2555      S2560   1.805       .  S
C2556      C2557   1.409       .  A
C2556      H2561   1.084       .  S
C2557      C2558   1.419       .  A
C2558      S2562   1.800       .  S
C2559      C2564   1.411       .  A
C2559      C2568   1.403       .  A
S2560      H2576   1.406       .  S
S2562      H2573   1.407       .  S
C2564      C2565   1.407       .  A
C2564      S2569   1.806       .  S
C2565      C2566   1.405       .  A
C2565      H2570   1.083       .  S
C2566      C2567   1.414       .  A
C2567      C2568   1.401       .  A
C2567      S2571   1.804       .  S
C2568      H2572   1.084       .  S
S2569      H2574   1.407       .  S
S2571      H2575   1.408       .  S
C2577      C2578   1.403       .  A
C2577      C2582   1.402       .  A
C2577      H2587   1.084       .  S
C2578      C2583   1.482       .  S
C2578      C2579   1.410       .  A
C2579      C2580   1.399       .  A
C2579      S2584   1.804       .  S
C2580      C2581   1.406       .  A
C2580      H2585   1.084       .  S
C2581      C2582   1.418       .  A
C2582      S2586   1.805       .  S
C2583      C2588   1.410       .  A
C2583      C2592   1.401       .  A
S2584      H2600   1.406       .  S
S2586      H2597   1.408       .  S
C2588      C2589   1.405       .  A
C2588      S2593   1.806       .  S
C2589      C2590   1.404       .  A
C2589      H2594   1.083       .  S
C2590      C2591   1.414       .  A
C2591      C2592   1.399       .  A
C2591      S2595   1.802       .  S
C2592      H2596   1.084       .  S
S2593      H2598   1.407       .  S
S2595      H2599   1.406       .  S
C2601      C2602   1.398       .  A
C2601      C2606   1.390       .  A
C2601      H2611   1.085       .  S
C2602      C2607   1.476       .  S
C2602      C2603   1.413       .  A
C2603      C2604   1.405       .  A
C2603      S2608   1.803       .  S
C2604      C2605   1.406       .  A
C2604      H2609   1.084       .  S
C2605      C2606   1.415       .  A
C2606      S2610   1.802       .  S
C2607      C2612   1.408       .  A
C2607      C2616   1.405       .  A
S2608      H2624   1.406       .  S
S2610      H2621   1.400       .  S
C2612      C2613   1.397       .  A
C2612      S2617   1.807       .  S
C2613      C2614   1.403       .  A
C2613      H2618   1.083   1_556  S
C2614      C2615   1.412       .  A
C2615      C2616   1.401       .  A
C2615      S2619   1.799       .  S
C2616      H2620   1.084       .  S
S2617      H2622   1.408   1_556  S
S2619      H2623   1.405       .  S
C2625      C2626   1.404       .  A
C2625      C2630   1.400       .  A
C2625      H2635   1.084       .  S
C2626      C2631   1.480       .  S
C2626      C2627   1.412       .  A
C2627      C2628   1.398       .  A
C2627      S2632   1.803       .  S
C2628      C2629   1.402       .  A
C2628      H2633   1.084       .  S
C2629      C2630   1.412       .  A
C2630      S2634   1.805       .  S
C2631      C2636   1.408       .  A
C2631      C2640   1.400       .  A
S2632      H2648   1.406       .  S
S2634      H2645   1.407       .  S
C2636      C2637   1.404       .  A
C2636      S2641   1.805       .  S
C2637      C2638   1.407       .  A
C2637      H2642   1.082       .  S
C2638      C2639   1.417       .  A
C2639      C2640   1.397       .  A
C2639      S2643   1.800       .  S
C2640      H2644   1.084       .  S
S2641      H2646   1.407       .  S
S2643      H2647   1.407       .  S
C2649      C2650   1.403       .  A
C2649      C2654   1.402       .  A
C2649      H2659   1.084       .  S
C2650      C2655   1.479       .  S
C2650      C2651   1.411       .  A
C2651      C2652   1.395   1_554  A
C2651      S2656   1.805       .  S
C2652      C2653   1.406       .  A
C2652      H2657   1.084       .  S
C2653      C2654   1.416   1_556  A
C2654      S2658   1.800       .  S
C2655      C2660   1.409       .  A
C2655      C2664   1.402   1_554  A
S2656      H2672   1.406       .  S
S2658      H2669   1.407       .  S
C2660      C2661   1.403       .  A
C2660      S2665   1.806       .  S
C2661      C2662   1.404       .  A
C2661      H2666   1.083       .  S
C2662      C2663   1.414   1_554  A
C2663      C2664   1.397       .  A
C2663      S2667   1.805       .  S
C2664      H2668   1.084       .  S
S2665      H2670   1.407       .  S
S2667      H2671   1.405       .  S
C2673      C2674   1.401       .  A
C2673      C2678   1.401       .  A
C2673      H2683   1.084       .  S
C2674      C2679   1.483       .  S
C2674      C2675   1.415       .  A
C2675      C2676   1.403       .  A
C2675      S2680   1.806       .  S
C2676      C2677   1.404       .  A
C2676      H2681   1.084       .  S
C2677      C2678   1.416       .  A
C2678      S2682   1.803   1_556  S
C2679      C2684   1.408       .  A
C2679      C2688   1.402       .  A
S2680      H2696   1.403       .  S
S2682      H2693   1.407       .  S
C2684      C2685   1.405       .  A
C2684      S2689   1.806       .  S
C2685      C2686   1.407       .  A
C2685      H2690   1.083       .  S
C2686      C2687   1.417       .  A
C2687      C2688   1.402       .  A
C2687      S2691   1.801       .  S
C2688      H2692   1.084       .  S
S2689      H2694   1.407       .  S
S2691      H2695   1.407       .  S
C2697      C2698   1.399       .  A
C2697      C2702   1.392       .  A
C2697      H2707   1.084       .  S
C2698      C2703   1.478       .  S
C2698      C2699   1.414       .  A
C2699      C2700   1.404       .  A
C2699      S2704   1.803       .  S
C2700      C2701   1.404       .  A
C2700      H2705   1.083       .  S
C2701      C2702   1.412       .  A
C2702      S2706   1.801   1_554  S
C2703      C2708   1.411       .  A
C2703      C2712   1.406       .  A
S2704      H2720   1.406       .  S
S2706      H2717   1.405       .  S
C2708      C2709   1.396       .  A
C2708      S2713   1.809       .  S
C2709      C2710   1.402       .  A
C2709      H2714   1.083       .  S
C2710      C2711   1.410       .  A
C2711      C2712   1.402       .  A
C2711      S2715   1.804       .  S
C2712      H2716   1.084       .  S
S2713      H2718   1.407       .  S
S2715      H2719   1.406       .  S
C2721      C2722   1.399       .  A
C2721      C2726   1.399       .  A
C2721      H2731   1.084       .  S
C2722      C2727   1.476       .  S
C2722      C2723   1.409       .  A
C2723      C2724   1.396       .  A
C2723      S2728   1.805       .  S
C2724      C2725   1.409       .  A
C2724      H2729   1.084       .  S
C2725      C2726   1.421       .  A
C2726      S2730   1.803       .  S
C2727      C2732   1.410       .  A
C2727      C2736   1.401       .  A
S2728      H2744   1.406       .  S
S2730      H2741   1.406       .  S
C2732      C2733   1.400       .  A
C2732      S2737   1.807       .  S
C2733      C2734   1.402       .  A
C2733      H2738   1.083       .  S
C2734      C2735   1.412       .  A
C2735      C2736   1.399       .  A
C2735      S2739   1.799       .  S
C2736      H2740   1.084       .  S
S2737      H2742   1.406       .  S
S2739      H2743   1.406   1_655  S
C2745      C2746   1.401       .  A
C2745      C2750   1.394       .  A
C2745      H2755   1.084       .  S
C2746      C2751   1.469       .  S
C2746      C2747   1.409       .  A
C2747      C2748   1.396       .  A
C2747      S2752   1.803       .  S
C2748      C2749   1.403       .  A
C2748      H2753   1.084       .  S
C2749      C2750   1.411       .  A
C2750      S2754   1.801       .  S
C2751      C2756   1.404       .  A
C2751      C2760   1.398       .  A
S2752      H2768   1.406       .  S
S2754      H2765   1.406       .  S
C2756      C2757   1.398       .  A
C2756      S2761   1.807       .  S
C2757      C2758   1.410       .  A
C2757      H2762   1.082       .  S
C2758      C2759   1.419       .  A
C2759      C2760   1.394       .  A
C2759      S2763   1.802       .  S
C2760      H2764   1.084       .  S
S2761      H2766   1.407       .  S
S2763      H2767   1.408       .  S
C2769      C2770   1.400       .  A
C2769      C2774   1.395       .  A
C2769      H2779   1.084       .  S
C2770      C2775   1.475       .  S
C2770      C2771   1.411       .  A
C2771      C2772   1.397       .  A
C2771      S2776   1.806       .  S
C2772      C2773   1.407       .  A
C2772      H2777   1.083       .  S
C2773      C2774   1.417       .  A
C2774      S2778   1.803       .  S
C2775      C2780   1.410       .  A
C2775      C2784   1.403       .  A
S2776      H2792   1.405       .  S
S2778      H2789   1.404       .  S
C2780      C2781   1.399       .  A
C2780      S2785   1.808       .  S
C2781      C2782   1.401       .  A
C2781      H2786   1.082       .  S
C2782      C2783   1.410       .  A
C2783      C2784   1.397       .  A
C2783      S2787   1.804       .  S
C2784      H2788   1.084       .  S
S2785      H2790   1.407       .  S
S2787      H2791   1.406       .  S
C2793      C2794   1.404       .  A
C2793      C2798   1.392       .  A
C2793      H2803   1.084       .  S
C2794      C2799   1.487       .  S
C2794      C2795   1.417       .  A
C2795      C2796   1.404       .  A
C2795      S2800   1.803       .  S
C2796      C2797   1.401       .  A
C2796      H2801   1.084       .  S
C2797      C2798   1.407       .  A
C2798      S2802   1.798       .  S
C2799      C2804   1.414       .  A
C2799      C2808   1.404       .  A
S2800      H2816   1.407       .  S
S2802      H2813   1.405       .  S
C2804      C2805   1.405       .  A
C2804      S2809   1.807       .  S
C2805      C2806   1.401       .  A
C2805      H2810   1.083       .  S
C2806      C2807   1.408       .  A
C2807      C2808   1.399       .  A
C2807      S2811   1.807       .  S
C2808      H2812   1.082       .  S
S2809      H2814   1.407       .  S
S2811      H2815   1.406       .  S
C2817      C2818   1.401       .  A
C2817      C2822   1.397       .  A
C2817      H2827   1.084       .  S
C2818      C2823   1.481       .  S
C2818      C2819   1.411       .  A
C2819      C2820   1.399       .  A
C2819      S2824   1.804       .  S
C2820      C2821   1.407       .  A
C2820      H2825   1.084       .  S
C2821      C2822   1.416       .  A
C2822      S2826   1.800       .  S
C2823      C2828   1.412       .  A
C2823      C2832   1.400       .  A
S2824      H2840   1.406       .  S
S2826      H2837   1.407       .  S
C2828      C2829   1.404       .  A
C2828      S2833   1.808       .  S
C2829      C2830   1.404       .  A
C2829      H2834   1.083       .  S
C2830      C2831   1.416       .  A
C2831      C2832   1.397       .  A
C2831      S2835   1.803       .  S
C2832      H2836   1.084       .  S
S2833      H2838   1.407       .  S
S2835      H2839   1.404       .  S
C2841      C2842   1.405       .  A
C2841      C2846   1.400       .  A
C2841      H2851   1.084       .  S
C2842      C2847   1.489       .  S
C2842      C2843   1.416       .  A
C2843      C2844   1.400       .  A
C2843      S2848   1.804       .  S
C2844      C2845   1.402       .  A
C2844      H2849   1.084       .  S
C2845      C2846   1.413       .  A
C2846      S2850   1.804       .  S
C2847      C2852   1.413       .  A
C2847      C2856   1.405       .  A
S2848      H2864   1.406       .  S
S2850      H2861   1.407       .  S
C2852      C2853   1.402       .  A
C2852      S2857   1.809       .  S
C2853      C2854   1.405       .  A
C2853      H2858   1.082       .  S
C2854      C2855   1.414       .  A
C2855      C2856   1.402       .  A
C2855      S2859   1.803       .  S
C2856      H2860   1.084       .  S
S2857      H2862   1.407       .  S
S2859      H2863   1.408       .  S
C2865      C2866   1.399       .  A
C2865      C2870   1.395       .  A
C2865      H2875   1.084       .  S
C2866      C2871   1.473       .  S
C2866      C2867   1.408       .  A
C2867      C2868   1.397       .  A
C2867      S2872   1.805       .  S
C2868      C2869   1.410       .  A
C2868      H2873   1.083       .  S
C2869      C2870   1.421       .  A
C2870      S2874   1.803       .  S
C2871      C2876   1.409       .  A
C2871      C2880   1.398       .  A
S2872      H2888   1.405       .  S
S2874      H2885   1.408       .  S
C2876      C2877   1.403       .  A
C2876      S2881   1.806       .  S
C2877      C2878   1.404       .  A
C2877      H2882   1.083       .  S
C2878      C2879   1.417       .  A
C2879      C2880   1.392       .  A
C2879      S2883   1.805       .  S
C2880      H2884   1.085       .  S
S2881      H2886   1.407       .  S
S2883      H2887   1.403       .  S
C2889      C2890   1.405       .  A
C2889      C2894   1.397       .  A
C2889      H2899   1.083       .  S
C2890      C2895   1.479       .  S
C2890      C2891   1.414       .  A
C2891      C2892   1.392       .  A
C2891      S2896   1.805       .  S
C2892      C2893   1.399       .  A
C2892      H2897   1.084       .  S
C2893      C2894   1.411       .  A
C2894      S2898   1.809       .  S
C2895      C2900   1.413       .  A
C2895      C2904   1.402       .  A
S2896      H2912   1.406       .  S
S2898      H2909   1.401       .  S
C2900      C2901   1.405       .  A
C2900      S2905   1.806       .  S
C2901      C2902   1.401       .  A
C2901      H2906   1.083       .  S
C2902      C2903   1.409       .  A
C2903      C2904   1.388       .  A
C2903      S2907   1.805       .  S
C2904      H2908   1.084       .  S
S2905      H2910   1.407       .  S
S2907      H2911   1.403       .  S
C2913      C2914   1.400       .  A
C2913      C2918   1.399       .  A
C2913      H2923   1.084       .  S
C2914      C2919   1.474       .  S
C2914      C2915   1.410       .  A
C2915      C2916   1.397       .  A
C2915      S2920   1.805       .  S
C2916      C2917   1.407       .  A
C2916      H2921   1.084       .  S
C2917      C2918   1.416       .  A
C2918      S2922   1.800       .  S
C2919      C2924   1.407       .  A
C2919      C2928   1.399       .  A
S2920      H2936   1.403       .  S
S2922      H2933   1.407       .  S
C2924      C2925   1.404       .  A
C2924      S2929   1.805       .  S
C2925      C2926   1.406       .  A
C2925      H2930   1.083       .  S
C2926      C2927   1.413       .  A
C2927      C2928   1.398       .  A
C2927      S2931   1.807       .  S
C2928      H2932   1.083       .  S
S2929      H2934   1.407       .  S
S2931      H2935   1.407       .  S
C2937      C2938   1.401       .  A
C2937      C2942   1.397       .  A
C2937      H2947   1.084       .  S
C2938      C2943   1.478       .  S
C2938      C2939   1.410       .  A
C2939      C2940   1.399       .  A
C2939      S2944   1.804       .  S
C2940      C2941   1.408       .  A
C2940      H2945   1.083       .  S
C2941      C2942   1.416       .  A
C2942      S2946   1.801       .  S
C2943      C2948   1.408       .  A
C2943      C2952   1.400       .  A
S2944      H2960   1.406       .  S
S2946      H2957   1.404       .  S
C2948      C2949   1.398       .  A
C2948      S2953   1.809       .  S
C2949      C2950   1.409       .  A
C2949      H2954   1.082       .  S
C2950      C2951   1.421       .  A
C2951      C2952   1.401       .  A
C2951      S2955   1.802       .  S
C2952      H2956   1.084       .  S
S2953      H2958   1.407       .  S
S2955      H2959   1.405       .  S
C2961      C2962   1.402       .  A
C2961      C2966   1.403       .  A
C2961      H2971   1.083       .  S
C2962      C2967   1.481       .  S
C2962      C2963   1.412       .  A
C2963      C2964   1.398       .  A
C2963      S2968   1.805       .  S
C2964      C2965   1.404       .  A
C2964      H2969   1.084       .  S
C2965      C2966   1.416       .  A
C2966      S2970   1.809       .  S
C2967      C2972   1.410       .  A
C2967      C2976   1.404       .  A
S2968      H2984   1.406       .  S
S2970      H2981   1.406       .  S
C2972      C2973   1.402       .  A
C2972      S2977   1.808       .  S
C2973      C2974   1.405       .  A
C2973      H2978   1.083       .  S
C2974      C2975   1.412       .  A
C2975      C2976   1.400       .  A
C2975      S2979   1.803       .  S
C2976      H2980   1.084       .  S
S2977      H2982   1.407       .  S
S2979      H2983   1.408   1_655  S
C2985      C2986   1.402       .  A
C2985      C2990   1.401       .  A
C2985      H2995   1.084       .  S
C2986      C2991   1.478       .  S
C2986      C2987   1.412       .  A
C2987      C2988   1.398       .  A
C2987      S2992   1.806       .  S
C2988      C2989   1.404       .  A
C2988      H2993   1.085       .  S
C2989      C2990   1.414       .  A
C2990      S2994   1.802       .  S
C2991      C2996   1.409       .  A
C2991      C3000   1.397       .  A
S2992      H3008   1.404       .  S
S2994      H3005   1.407       .  S
C2996      C2997   1.406       .  A
C2996      S3001   1.805       .  S
C2997      C2998   1.405       .  A
C2997      H3002   1.083       .  S
C2998      C2999   1.418       .  A
C2999      C3000   1.396       .  A
C2999      S3003   1.801       .  S
C3000      H3004   1.084       .  S
S3001      H3006   1.407       .  S
S3003      H3007   1.405       .  S
