geometry optimzed in LAMMPS
_audit_creation_date              2020-12-01 
_audit_creation_method            'lammps2cif' 
_symmetry_space_group_name_H-M    'P1' 
_symmetry_Int_Tables_number       1 
_symmetry_cell_setting            triclinic 
loop_ 
_symmetry_equiv_pos_as_xyz 
  x,y,z 
_cell_length_a                    75.39878946 
_cell_length_b                    75.35682408845746 
_cell_length_c                    31.25009411076238 
_cell_angle_alpha                 90.08481900382917 
_cell_angle_beta                  89.93724098309346 
_cell_angle_gamma                 120.21499099424787 
loop_ 
_atom_site_label 
_atom_site_type_symbol 
_atom_site_fract_x 
_atom_site_fract_y 
_atom_site_fract_z 
_atom_site_charge 
Fe1        Fe  0.32433729  0.88244911  0.48648245     1.65800
Fe2        Fe  0.37038956  0.89056368  0.45358484     1.73200
Fe3        Fe  0.34233744  0.85246284  0.52173623     1.54400
O4          O  0.32476530  0.85641067  0.56808746    -0.82000
O5          O  0.36647951  0.86444733  0.42404587    -0.80300
O6          O  0.32642105  0.88585859  0.55200040    -0.84500
O7          O  0.30085240  0.85127633  0.49011244    -0.79300
O8          O  0.36803358  0.87173093  0.55584412    -0.81100
O9          O  0.35501337  0.89466545  0.40251457    -0.83800
C10         C  0.30036249  0.83411804  0.48565070     0.96900
C11         C  0.32462361  0.87256447  0.57907152     1.04400
O12         O  0.34562900  0.87516374  0.48675217    -1.12800
O13         O  0.37596426  0.91740360  0.48129145    -0.75200
O14         O  0.34505022  0.91437364  0.48302126    -0.78700
O15         O  0.31642909  0.83272843  0.48868824    -0.79400
C16         C  0.36455813  0.92513052  0.48632246     0.95800
O17         O  0.32191924  0.87979931  0.42085355    -0.77400
O18         O  0.38873431  0.88805041  0.50082132    -0.82600
C19         C  0.36754895  0.85047976  0.44434483     0.98500
C20         C  0.38580084  0.88177294  0.53952545     1.04400
O21         O  0.36025427  0.84525326  0.48194214    -0.78200
C22         C  0.33615447  0.88734227  0.39308386     1.02700
Fe23       Fe  0.32564754  0.88183654  0.98604954     1.65800
Fe24       Fe  0.37190625  0.88946623  0.95599710     1.73200
Fe25       Fe  0.34276660  0.85132429  0.02390811     1.54400
O26         O  0.32620888  0.85677220  0.07050970    -0.82000
O27         O  0.36769908  0.86321675  0.92667157    -0.80300
O28         O  0.32682769  0.88554832  0.05150667    -0.84500
O29         O  0.30143829  0.85102498  0.99039135    -0.79300
O30         O  0.36896013  0.86978366  0.05778475    -0.81100
O31         O  0.35721600  0.89386937  0.90420894    -0.83800
C32         C  0.30039587  0.83356360  0.98809230     0.96900
C33         C  0.32491667  0.87255581  0.07958237     1.04400
O34         O  0.34676730  0.87424458  0.98852738    -1.12800
O35         O  0.37775304  0.91669428  0.98267671    -0.75200
O36         O  0.34682745  0.91361731  0.98106185    -0.78700
O37         O  0.31621021  0.83179116  0.99208651    -0.79400
C38         C  0.36634137  0.92458001  0.98404141     0.95800
O39         O  0.32389865  0.87863462  0.92055456    -0.77400
O40         O  0.38995369  0.88683967  0.00372300    -0.82600
C41         C  0.36728511  0.84825703  0.94600267     0.98500
C42         C  0.38684664  0.88031345  0.04221154     1.04400
O43         O  0.35962490  0.84287026  0.98337072    -0.78200
C44         C  0.33849060  0.88638974  0.89362286     1.02700
Fe45       Fe  0.44154952  0.11954993  0.02795333     1.65800
Fe46       Fe  0.48059478  0.11264499  0.05768864     1.73200
Fe47       Fe  0.48937179  0.15107930  0.99187967     1.54400
O48         O  0.46740316  0.14711652  0.94704213    -0.82000
O49         O  0.50258253  0.13886555  0.08746430    -0.80300
O50         O  0.44033935  0.11690762  0.96232075    -0.84500
O51         O  0.44842135  0.15049279  0.02701288    -0.79300
O52         O  0.49652875  0.13288236  0.95563232    -0.81100
O53         O  0.46137202  0.10770271  0.10982660    -0.83800
C54         C  0.46502537  0.16778633  0.03157071     0.96900
C55         C  0.45179776  0.13044428  0.93555787     1.04400
O56         O  0.47043505  0.12772227  0.02637029    -1.12800
O57         O  0.45950868  0.08566571  0.02989707    -0.75200
O58         O  0.43115370  0.08783195  0.02905029    -0.78700
O59         O  0.48263374  0.16962594  0.02730647    -0.79400
C60         C  0.44028110  0.07752147  0.02503623     0.95800
O61         O  0.44163804  0.12107695  0.09380916    -0.77400
O62         O  0.50111401  0.11582910  0.00871957    -0.82600
C63         C  0.51726344  0.15325751  0.06707149     0.98500
C64         C  0.50398720  0.12226784  0.97009495     1.04400
O65         O  0.51479486  0.15862094  0.03009880    -0.78200
C66         C  0.44894717  0.11374953  0.12053967     1.02700
Fe67       Fe  0.44414081  0.11947403  0.52855903     1.65800
Fe68       Fe  0.48418746  0.11386416  0.55668276     1.73200
Fe69       Fe  0.49108666  0.15027332  0.48595522     1.54400
O70         O  0.46851369  0.14274369  0.43975954    -0.82000
O71         O  0.50547311  0.14104837  0.58451081    -0.80300
O72         O  0.44025070  0.11502408  0.46342347    -0.84500
O73         O  0.44967022  0.14972338  0.52437475    -0.79300
O74         O  0.50007049  0.13210066  0.45370319    -0.81100
O75         O  0.46522848  0.10870824  0.60886140    -0.83800
C76         C  0.46593082  0.16737063  0.52498421     0.96900
C77         C  0.45101047  0.12693224  0.43348989     1.04400
O78         O  0.47306399  0.12780221  0.52356755    -1.12800
O79         O  0.46319996  0.08603154  0.53088533    -0.75200
O80         O  0.43478095  0.08820366  0.53343751    -0.78700
O81         O  0.48349085  0.16979010  0.51638429    -0.79400
C82         C  0.44377170  0.07776625  0.52946293     0.95800
O83         O  0.44652290  0.12321021  0.59414790    -0.77400
O84         O  0.50541222  0.11715306  0.50967816    -0.82600
C85         C  0.51922549  0.15630439  0.56406565     0.98500
C86         C  0.50849684  0.12288805  0.47074508     1.04400
O87         O  0.51642326  0.16059571  0.52620885    -0.78200
C88         C  0.45391181  0.11585054  0.62054094     1.02700
Fe89       Fe  0.67925051  0.12271403  0.23306442     1.65800
Fe90       Fe  0.63243518  0.11326048  0.20302208     1.73200
Fe91       Fe  0.66143833  0.15313289  0.26692168     1.54400
O92         O  0.67967836  0.15011427  0.31295860    -0.82000
O93         O  0.63562612  0.13852402  0.17142886    -0.80300
O94         O  0.67785344  0.12033679  0.29866352    -0.84500
O95         O  0.70275057  0.15395564  0.23521895    -0.79300
O96         O  0.63610638  0.13501904  0.30350258    -0.81100
O97         O  0.64735573  0.10876294  0.15120100    -0.83800
C98         C  0.70294217  0.17087861  0.22949048     0.96900
C99         C  0.67970912  0.13403829  0.32487204     1.04400
O100        O  0.65764901  0.12958179  0.23417301    -1.12800
O101        O  0.62761351  0.08690850  0.23184378    -0.75200
O102        O  0.65876275  0.09055947  0.23055712    -0.78700
O103        O  0.68668297  0.17190408  0.23147467    -0.79400
C104        C  0.63927779  0.07935329  0.23410489     0.95800
O105        O  0.68077660  0.12485212  0.16740836    -0.77400
O106        O  0.61450534  0.11615006  0.25154860    -0.82600
C107        C  0.63569130  0.15353082  0.18968903     0.98500
C108        C  0.61800816  0.12350317  0.28958468     1.04400
O109        O  0.64338958  0.15961659  0.22667232    -0.78200
C110        C  0.66618478  0.11687406  0.14050957     1.02700
Fe111      Fe  0.67457749  0.12203337  0.73237999     1.65800
Fe112      Fe  0.62846514  0.11475164  0.70267349     1.73200
Fe113      Fe  0.65735894  0.15222969  0.77199338     1.54400
O114        O  0.67397599  0.14664115  0.81737006    -0.82000
O115        O  0.63287073  0.14137893  0.67505994    -0.80300
O116        O  0.67344002  0.11792495  0.79803979    -0.84500
O117        O  0.69859662  0.15263971  0.73776692    -0.79300
O118        O  0.63091639  0.13352995  0.80564022    -0.81100
O119        O  0.64339072  0.11123658  0.65048083    -0.83800
C120        C  0.69956017  0.17001911  0.73512784     0.96900
C121        C  0.67554835  0.13103587  0.82621307     1.04400
O122        O  0.65339524  0.12953412  0.73579585    -1.12800
O123        O  0.62250437  0.08704758  0.72758812    -0.75200
O124        O  0.65351396  0.09028315  0.72596767    -0.78700
O125        O  0.68381138  0.17184199  0.73988955    -0.79400
C126        C  0.63400779  0.07922895  0.72887089     0.95800
O127        O  0.67662091  0.12611644  0.66685187    -0.77400
O128        O  0.61030017  0.11693275  0.75059526    -0.82600
C129        C  0.63356987  0.15632227  0.69514620     0.98500
C130        C  0.61314858  0.12320106  0.78924750     1.04400
O131        O  0.64084230  0.16113096  0.73276018    -0.78200
C132        C  0.66212793  0.11906055  0.63970031     1.02700
Fe133      Fe  0.56043635  0.88286458  0.26758681     1.65800
Fe134      Fe  0.52297434  0.89119484  0.30323139     1.73200
Fe135      Fe  0.51159635  0.85213808  0.23637558     1.54400
O136        O  0.53211557  0.85629103  0.18763424    -0.82000
O137        O  0.50109972  0.86546246  0.33492838    -0.80300
O138        O  0.56059219  0.88573664  0.20181110    -0.84500
O139        O  0.55312176  0.85185621  0.26366980    -0.79300
O140        O  0.50364147  0.87048691  0.20331556    -0.81100
O141        O  0.54340257  0.89572477  0.35248587    -0.83800
C142        C  0.53660196  0.83456463  0.26860151     0.96900
C143        C  0.54845078  0.87222587  0.17549985     1.04400
O144        O  0.53170346  0.87540687  0.26945198    -1.12800
O145        O  0.54403966  0.91797554  0.27412688    -0.75200
O146        O  0.57180750  0.91481546  0.27164655    -0.78700
O147        O  0.51900059  0.83296243  0.26778890    -0.79400
C148        C  0.56327084  0.92574717  0.26955450     0.95800
O149        O  0.56110653  0.88050366  0.33313971    -0.77400
O150        O  0.50114840  0.88824813  0.25787308    -0.82600
C151        C  0.48590023  0.85070621  0.31633048     0.98500
C152        C  0.49682362  0.88128109  0.21972953     1.04400
O153        O  0.48744999  0.84479661  0.27904529    -0.78200
C154        C  0.55487849  0.88831164  0.36126291     1.02700
Fe155      Fe  0.55908055  0.88283156  0.76747779     1.65800
Fe156      Fe  0.52052465  0.89044163  0.79813700     1.73200
Fe157      Fe  0.51092203  0.85163773  0.73199878     1.54400
O158        O  0.53245903  0.85616206  0.68479897    -0.82000
O159        O  0.49877323  0.86450598  0.82925657    -0.80300
O160        O  0.56080474  0.88527821  0.70194556    -0.84500
O161        O  0.55212678  0.85175569  0.76623855    -0.79300
O162        O  0.50310360  0.86960812  0.69721592    -0.81100
O163        O  0.54021673  0.89585805  0.84945027    -0.83800
C164        C  0.53547171  0.83444543  0.77023217     0.96900
C165        C  0.54932928  0.87202661  0.67460190     1.04400
O166        O  0.53026041  0.87503667  0.76597802    -1.12800
O167        O  0.54150875  0.91724073  0.76918579    -0.75200
O168        O  0.56979291  0.91490324  0.76883486    -0.78700
O169        O  0.51796355  0.83275581  0.76546386    -0.79400
C170        C  0.56082735  0.92544753  0.76537840     0.95800
O171        O  0.55830032  0.88072822  0.83314429    -0.77400
O172        O  0.49910196  0.88664714  0.75117974    -0.82600
C173        C  0.48392691  0.84956973  0.81024715     0.98500
C174        C  0.49530239  0.87962680  0.71305509     1.04400
O175        O  0.48593534  0.84391397  0.77297655    -0.78200
C176        C  0.55121707  0.88818162  0.86009258     1.02700
Fe177      Fe  0.67493231  0.55731042  0.35594428     1.65800
Fe178      Fe  0.62902166  0.51956824  0.39076486     1.73200
Fe179      Fe  0.65687016  0.50850668  0.32330621     1.54400
O180        O  0.67253099  0.52915727  0.27386467    -0.82000
O181        O  0.63318031  0.49813291  0.42249757    -0.80300
O182        O  0.67265646  0.55797870  0.29062128    -0.84500
O183        O  0.69879081  0.55051063  0.35157171    -0.79300
O184        O  0.63006938  0.49999741  0.29110869    -0.81100
O185        O  0.64479053  0.54012527  0.44049073    -0.83800
C186        C  0.70004527  0.53424004  0.35408244     0.96900
C187        C  0.67392258  0.54613593  0.26352079     1.04400
O188        O  0.65369769  0.52846230  0.35700897    -1.12800
O189        O  0.62320429  0.54024571  0.36138553    -0.75200
O190        O  0.65412455  0.56823926  0.35974696    -0.78700
O191        O  0.68425471  0.51637888  0.35258949    -0.79400
C192        C  0.63461381  0.55947368  0.35696514     0.95800
O193        O  0.67780642  0.55765696  0.42131699    -0.77400
O194        O  0.60981361  0.49768338  0.34533673    -0.82600
C195        C  0.63342263  0.48312982  0.40482489     0.98500
C196        C  0.61238343  0.49366463  0.30689285     1.04400
O197        O  0.64073593  0.48448732  0.36733053    -0.78200
C198        C  0.66375725  0.55149015  0.44936528     1.02700
Fe199      Fe  0.67689633  0.55883135  0.85597852     1.65800
Fe200      Fe  0.63088560  0.52079760  0.88967984     1.73200
Fe201      Fe  0.65733853  0.51060854  0.81775089     1.54400
O202        O  0.67368057  0.53217466  0.77073561    -0.82000
O203        O  0.63565893  0.49897884  0.91758871    -0.80300
O204        O  0.67528657  0.56132674  0.79049472    -0.84500
O205        O  0.70011156  0.55106915  0.85049489    -0.79300
O206        O  0.63047748  0.50352963  0.78667287    -0.81100
O207        O  0.64671297  0.54032018  0.93995110    -0.83800
C208        C  0.70037730  0.53422069  0.85211435     0.96900
C209        C  0.67626419  0.54979848  0.76211858     1.04400
O210        O  0.65508554  0.53021040  0.85444446    -1.12800
O211        O  0.62501967  0.54217591  0.86397889    -0.75200
O212        O  0.65626017  0.56997011  0.86178346    -0.78700
O213        O  0.68419755  0.51684079  0.84720406    -0.79400
C214        C  0.63668996  0.56147430  0.86084216     0.95800
O215        O  0.67972499  0.55804910  0.92167041    -0.77400
O216        O  0.61137190  0.49952689  0.84424216    -0.82600
C217        C  0.63412571  0.48382111  0.89689921     0.98500
C218        C  0.61313973  0.49593143  0.80508992     1.04400
O219        O  0.64055805  0.48564409  0.85859942    -0.78200
C220        C  0.66554604  0.55163236  0.94948237     1.02700
Fe221      Fe  0.44096042  0.32336526  0.07303337     1.65800
Fe222      Fe  0.47833156  0.36945996  0.03843991     1.73200
Fe223      Fe  0.48946741  0.34221137  0.10608644     1.54400
O224        O  0.46853973  0.32539140  0.15415078    -0.82000
O225        O  0.50001008  0.36548184  0.00714681    -0.80300
O226        O  0.44024000  0.32625134  0.13842123    -0.84500
O227        O  0.44838019  0.30003461  0.07818400    -0.79300
O228        O  0.49689260  0.36853851  0.13932798    -0.81100
O229        O  0.45792867  0.35338759  0.98878610    -0.83800
C230        C  0.46495698  0.29962361  0.07260519     0.96900
C231        C  0.45213538  0.32499339  0.16530314     1.04400
O232        O  0.46955726  0.34498294  0.07216277    -1.12800
O233        O  0.45736300  0.37479469  0.06785252    -0.75200
O234        O  0.42963210  0.34359609  0.06804448    -0.78700
O235        O  0.48250202  0.31580338  0.07406066    -0.79400
C236        C  0.43818050  0.36301310  0.07205865     0.95800
O237        O  0.44090400  0.32028924  0.00760605    -0.77400
O238        O  0.50003404  0.38870529  0.08423738    -0.82600
C239        C  0.51523791  0.36644816  0.02631956     0.98500
C240        C  0.50373076  0.38622005  0.12299398     1.04400
O241        O  0.51373559  0.35940405  0.06397639    -0.78200
C242        C  0.44683841  0.33438063  0.97966657     1.02700
Fe243      Fe  0.43996110  0.32230962  0.57277449     1.65800
Fe244      Fe  0.47819840  0.36969903  0.54689725     1.73200
Fe245      Fe  0.48756480  0.34043992  0.61355884     1.54400
O246        O  0.46515939  0.32251783  0.65812732    -0.82000
O247        O  0.50173814  0.36753800  0.51876416    -0.80300
O248        O  0.43669317  0.32229927  0.63833094    -0.84500
O249        O  0.44764054  0.29890857  0.57548197    -0.79300
O250        O  0.49433690  0.36604785  0.64933602    -0.81100
O251        O  0.46043369  0.35539235  0.49317608    -0.83800
C252        C  0.46439298  0.29846604  0.57440989     0.96900
C253        C  0.44784440  0.32070271  0.66669210     1.04400
O254        O  0.46856109  0.34412033  0.57748937    -1.12800
O255        O  0.45554287  0.37382967  0.57277907    -0.75200
O256        O  0.42812673  0.34251787  0.56942113    -0.78700
O257        O  0.48175998  0.31454941  0.58015694    -0.79400
C258        C  0.43624012  0.36191901  0.57414594     0.95800
O259        O  0.44218737  0.32179916  0.50698481    -0.77400
O260        O  0.49753230  0.38735455  0.59665460    -0.82600
C261        C  0.51611400  0.36714601  0.53890504     0.98500
C262        C  0.50110461  0.38406717  0.63483863     1.04400
O263        O  0.51329547  0.35861439  0.57534873    -0.78200
C264        C  0.44949875  0.33681921  0.48103939     1.02700
Fe265      Fe  0.55802621  0.67731941  0.31890561     1.65800
Fe266      Fe  0.51930509  0.63188724  0.28448903     1.73200
Fe267      Fe  0.50990193  0.65995569  0.35386612     1.54400
O268        O  0.53136278  0.67625375  0.40169082    -0.82000
O269        O  0.49820529  0.63723637  0.25463976    -0.80300
O270        O  0.55934545  0.67506207  0.38430418    -0.84500
O271        O  0.55161406  0.70148606  0.32325531    -0.79300
O272        O  0.50176133  0.63330116  0.38642080    -0.81100
O273        O  0.53949727  0.64728804  0.23451550    -0.83800
C274        C  0.53523676  0.70234357  0.31796704     0.96900
C275        C  0.54799982  0.67687522  0.41182553     1.04400
O276        O  0.52916062  0.65637564  0.31901476    -1.12800
O277        O  0.53975629  0.62516118  0.31210992    -0.75200
O278        O  0.56813325  0.65589867  0.31415472    -0.78700
O279        O  0.51747619  0.68661624  0.32208695    -0.79400
C280        C  0.55904462  0.63632694  0.31637531     0.95800
O281        O  0.55782648  0.68026159  0.25353086    -0.77400
O282        O  0.49752445  0.61323574  0.33023261    -0.82600
C283        C  0.48317896  0.63644245  0.27444661     0.98500
C284        C  0.49399576  0.61569564  0.36910312     1.04400
O285        O  0.48503235  0.64333286  0.31240224    -0.78200
C286        C  0.55106013  0.66618517  0.22546783     1.02700
Fe287      Fe  0.55777544  0.67764025  0.81920554     1.65800
Fe288      Fe  0.52031492  0.63099535  0.78728934     1.73200
Fe289      Fe  0.50937684  0.65889227  0.85447610     1.54400
O290        O  0.53052978  0.67635088  0.90160249    -0.82000
O291        O  0.49816496  0.63444381  0.75684280    -0.80300
O292        O  0.55921434  0.67640026  0.88478082    -0.84500
O293        O  0.55003660  0.70090263  0.82186501    -0.79300
O294        O  0.50231112  0.63280813  0.88864088    -0.81100
O295        O  0.53991223  0.64627447  0.73629189    -0.83800
C296        C  0.53335072  0.70130901  0.81796394     0.96900
C297        C  0.54751060  0.67783749  0.91197200     1.04400
O298        O  0.52920460  0.65588322  0.82008177    -1.12800
O299        O  0.54171067  0.62599011  0.81593303    -0.75200
O300        O  0.56930279  0.65729219  0.81677804    -0.78700
O301        O  0.51582503  0.68517384  0.82180767    -0.79400
C302        C  0.56085382  0.63783829  0.82078711     0.95800
O303        O  0.55744851  0.67953091  0.75343584    -0.77400
O304        O  0.49932082  0.61234570  0.83410550    -0.82600
C305        C  0.48299315  0.63337924  0.77653732     0.98500
C306        C  0.49562894  0.61503628  0.87269064     1.04400
O307        O  0.48474506  0.64097642  0.81372431    -0.78200
C308        C  0.55102633  0.66510464  0.72613392     1.02700
Fe309      Fe  0.32316859  0.44267868  0.09726650     1.65800
Fe310      Fe  0.36886528  0.48027470  0.13465850     1.73200
Fe311      Fe  0.34274358  0.49124519  0.06362879     1.54400
O312        O  0.32623306  0.47021026  0.01576996    -0.82000
O313        O  0.36497603  0.50262287  0.16309672    -0.80300
O314        O  0.32635305  0.44156013  0.03169752    -0.84500
O315        O  0.30000656  0.45036453  0.09090116    -0.79300
O316        O  0.36934655  0.49819186  0.03224393    -0.81100
O317        O  0.35190004  0.46090519  0.18445853    -0.83800
C318        C  0.29972221  0.46706585  0.09599710     0.96900
C319        C  0.32503191  0.45341420  0.00470680     1.04400
O320        O  0.34496286  0.47130268  0.09869911    -1.12800
O321        O  0.37444723  0.45865935  0.10954315    -0.75200
O322        O  0.34322899  0.43114142  0.10443091    -0.78700
O323        O  0.31599696  0.48456719  0.09405569    -0.79400
C324        C  0.36271923  0.43945735  0.10548081     0.95800
O325        O  0.31929323  0.44287047  0.16237851    -0.77400
O326        O  0.38878633  0.50103032  0.08862406    -0.82600
C327        C  0.36638298  0.51780840  0.14296506     0.98500
C328        C  0.38678577  0.50469154  0.04955957     1.04400
O329        O  0.35975715  0.51603139  0.10489332    -0.78200
C330        C  0.33276465  0.44976801  0.19168815     1.02700
Fe331      Fe  0.31989978  0.44284216  0.59649888     1.65800
Fe332      Fe  0.36691379  0.47939583  0.62688423     1.73200
Fe333      Fe  0.33871955  0.49167668  0.56476058     1.54400
O334        O  0.32091762  0.47103342  0.51721680    -0.82000
O335        O  0.36368960  0.50080834  0.66094507    -0.80300
O336        O  0.32078762  0.44194935  0.53072585    -0.84500
O337        O  0.29680298  0.45084982  0.59495655    -0.79300
O338        O  0.36423257  0.49928962  0.52864506    -0.81100
O339        O  0.35201866  0.45890985  0.67682026    -0.83800
C340        C  0.29689005  0.46761785  0.60198661     0.96900
C341        C  0.31930110  0.45417010  0.50493967     1.04400
O342        O  0.34188405  0.47124677  0.59588551    -1.12800
O343        O  0.37129355  0.45830215  0.59486428    -0.75200
O344        O  0.34006123  0.43081023  0.59859315    -0.78700
O345        O  0.31320093  0.48496725  0.59963949    -0.79400
C346        C  0.35950765  0.43898007  0.59425158     0.95800
O347        O  0.31856196  0.44358604  0.66232254    -0.77400
O348        O  0.38521043  0.50136546  0.58104985    -0.82600
C349        C  0.36424672  0.51631037  0.64403232     0.98500
C350        C  0.38213224  0.50587148  0.54347013     1.04400
O351        O  0.35676128  0.51551183  0.60712424    -0.78200
C352        C  0.33332102  0.44941061  0.68856062     1.02700
Fe353      Fe  0.12077963  0.44420828  0.15561138     1.65800
Fe354      Fe  0.11277450  0.48203736  0.12081582     1.73200
Fe355      Fe  0.15159402  0.49306476  0.18786423     1.54400
O356        O  0.14751349  0.47236806  0.23594298    -0.82000
O357        O  0.13869431  0.50396177  0.09002161    -0.80300
O358        O  0.11834927  0.44365899  0.22135923    -0.84500
O359        O  0.15175284  0.45148052  0.15780178    -0.79300
O360        O  0.13317762  0.50098361  0.22164777    -0.81100
O361        O  0.10851980  0.46211882  0.07075071    -0.83800
C362        C  0.16892043  0.46803220  0.15199365     0.96900
C363        C  0.13192902  0.45564457  0.24766119     1.04400
O364        O  0.12827716  0.47301425  0.15459894    -1.12800
O365        O  0.08569953  0.46081065  0.14825467    -0.75200
O366        O  0.08886008  0.43304462  0.15272211    -0.78700
O367        O  0.17066494  0.48567171  0.15539973    -0.79400
C368        C  0.07788797  0.44157520  0.15269723     0.95800
O369        O  0.12273732  0.44350923  0.08998027    -0.77400
O370        O  0.11528562  0.50330180  0.16720280    -0.82600
C371        C  0.15364377  0.51904092  0.10838383     0.98500
C372        C  0.12195905  0.50738578  0.20557611     1.04400
O373        O  0.15924936  0.51752827  0.14591726    -0.78200
C374        C  0.11534284  0.45015033  0.06196564     1.02700
Fe375      Fe  0.11968378  0.44579699  0.65554854     1.65800
Fe376      Fe  0.11153941  0.48342279  0.61954599     1.73200
Fe377      Fe  0.14839451  0.49409613  0.69224917     1.54400
O378        O  0.14332824  0.47284796  0.73985643    -0.82000
O379        O  0.13818011  0.50648085  0.59273900    -0.80300
O380        O  0.11531067  0.44387580  0.72082372    -0.84500
O381        O  0.15044313  0.45370666  0.66161046    -0.79300
O382        O  0.12845310  0.50093592  0.72262782    -0.81100
O383        O  0.10943452  0.46462719  0.56899501    -0.83800
C384        C  0.16757022  0.47046436  0.65870170     0.96900
C385        C  0.12802051  0.45542431  0.74889401     1.04400
O386        O  0.12644151  0.47437330  0.65559494    -1.12800
O387        O  0.08379764  0.46108896  0.64296087    -0.75200
O388        O  0.08813045  0.43404336  0.64889056    -0.78700
O389        O  0.16903348  0.48793124  0.66298486    -0.79400
C390        C  0.07665262  0.44192070  0.64727387     0.95800
O391        O  0.12357854  0.44623214  0.59032606    -0.77400
O392        O  0.11199346  0.50367512  0.66586815    -0.82600
C393        C  0.15229543  0.52121767  0.61368674     0.98500
C394        C  0.11763272  0.50742092  0.70487648     1.04400
O395        O  0.15680939  0.51895712  0.65164368    -0.78200
C396        C  0.11684624  0.45308041  0.56136637     1.02700
Fe397      Fe  0.11920409  0.67790427  0.43835648     1.65800
Fe398      Fe  0.11044556  0.63129676  0.46953662     1.73200
Fe399      Fe  0.14955571  0.66001591  0.40356683     1.54400
O400        O  0.14527517  0.67666328  0.35614119    -0.82000
O401        O  0.13618742  0.63535197  0.50105689    -0.80300
O402        O  0.11682713  0.67716599  0.37256943    -0.84500
O403        O  0.15030493  0.70174750  0.43689778    -0.79300
O404        O  0.13128099  0.63377251  0.36949710    -0.81100
O405        O  0.10536101  0.64612494  0.52038216    -0.83800
C406        C  0.16746599  0.70224322  0.44058846     0.96900
C407        C  0.13002694  0.67851601  0.34558044     1.04400
O408        O  0.12635048  0.65642350  0.43726007    -1.12800
O409        O  0.08390225  0.62580335  0.44001074    -0.75200
O410        O  0.08723004  0.65690613  0.44014296    -0.78700
O411        O  0.16888779  0.68628151  0.43594891    -0.79400
C412        C  0.07631292  0.63740272  0.43597987     0.95800
O413        O  0.12117783  0.67944518  0.50405801    -0.77400
O414        O  0.11354080  0.61286918  0.42307919    -0.82600
C415        C  0.15165850  0.63627258  0.48284707     0.98500
C416        C  0.12041776  0.61586989  0.38485681     1.04400
O417        O  0.15720330  0.64349760  0.44537737    -0.78200
C418        C  0.11309856  0.66489963  0.53098929     1.02700
Fe419      Fe  0.11911619  0.67782868  0.93858998     1.65800
Fe420      Fe  0.11130719  0.63171515  0.97091624     1.73200
Fe421      Fe  0.14893543  0.65994082  0.90142749     1.54400
O422        O  0.14456793  0.67743783  0.85570407    -0.82000
O423        O  0.13770179  0.63531936  0.99863021    -0.80300
O424        O  0.11524493  0.67577413  0.87311607    -0.84500
O425        O  0.15022375  0.70151807  0.93433048    -0.79300
O426        O  0.12950100  0.63403824  0.86751208    -0.81100
O427        O  0.10820119  0.64718726  0.02283529    -0.83800
C428        C  0.16735464  0.70199641  0.93885289     0.96900
C429        C  0.12839856  0.67767594  0.84548632     1.04400
O430        O  0.12639317  0.65649422  0.93739922    -1.12800
O431        O  0.08390923  0.62610209  0.94611400    -0.75200
O432        O  0.08727355  0.65714224  0.94365027    -0.78700
O433        O  0.16880556  0.68598517  0.93447848    -0.79400
C434        C  0.07620791  0.63759361  0.94249359     0.95800
O435        O  0.12226645  0.68020347  0.00399888    -0.77400
O436        O  0.11267775  0.61334950  0.92235796    -0.82600
C437        C  0.15182042  0.63481893  0.97768029     0.98500
C438        C  0.11842757  0.61623846  0.88329268     1.04400
O439        O  0.15668514  0.64222970  0.94015718    -0.78200
C440        C  0.11538038  0.66604970  0.03190103     1.02700
Fe441      Fe  0.88070406  0.55971682  0.40708250     1.65800
Fe442      Fe  0.88670706  0.52025774  0.37523413     1.73200
Fe443      Fe  0.84841852  0.51172759  0.44201521     1.54400
O444        O  0.85349676  0.53334270  0.48907883    -0.82000
O445        O  0.86012410  0.49931299  0.34474969    -0.80300
O446        O  0.88288345  0.56154011  0.47293711    -0.84500
O447        O  0.85019034  0.55382251  0.40780544    -0.79300
O448        O  0.86572928  0.50267367  0.47654287    -0.81100
O449        O  0.89252713  0.54005266  0.32425071    -0.83800
C450        C  0.83284842  0.53751889  0.40179121     0.96900
C451        C  0.86913135  0.55030384  0.49973673     1.04400
O452        O  0.87218328  0.53069914  0.40840636    -1.12800
O453        O  0.91424740  0.54067696  0.40286090    -0.75200
O454        O  0.91225130  0.56919717  0.40536771    -0.78700
O455        O  0.83027145  0.51970338  0.40784562    -0.79400
C456        C  0.92263937  0.56003424  0.40681763     0.95800
O457        O  0.87882238  0.55932450  0.34130062    -0.77400
O458        O  0.88251483  0.49867011  0.42194154    -0.82600
C459        C  0.84512678  0.48468085  0.36398464     0.98500
C460        C  0.87563911  0.49479173  0.46015550     1.04400
O461        O  0.83987203  0.48677287  0.40142281    -0.78200
C462        C  0.88587818  0.55197082  0.31406062     1.02700
Fe463      Fe  0.88014994  0.55910846  0.90704821     1.65800
Fe464      Fe  0.88838852  0.52156949  0.87072225     1.73200
Fe465      Fe  0.85067335  0.51046265  0.94112477     1.54400
O466        O  0.85416471  0.53146019  0.98857033    -0.82000
O467        O  0.86212822  0.49866019  0.84251225    -0.80300
O468        O  0.88311903  0.55992851  0.97257023    -0.84500
O469        O  0.84883202  0.55073120  0.90921764    -0.79300
O470        O  0.87060952  0.50446800  0.97392756    -0.81100
O471        O  0.89105774  0.54054195  0.81984066    -0.83800
C472        C  0.83182144  0.53382828  0.90435538     0.96900
C473        C  0.86999404  0.54810646  0.99959944     1.04400
O474        O  0.87311732  0.53048204  0.90581247    -1.12800
O475        O  0.91562754  0.54342041  0.89628517    -0.75200
O476        O  0.91211556  0.57081443  0.90483947    -0.78700
O477        O  0.83048684  0.51639563  0.90894744    -0.79400
C478        C  0.92310522  0.56231671  0.90470069     0.95800
O479        O  0.87802344  0.55991475  0.84159529    -0.77400
O480        O  0.88741600  0.50145382  0.91795522    -0.82600
C481        C  0.84875772  0.48338164  0.86338119     0.98500
C482        C  0.88184563  0.49821831  0.95712815     1.04400
O483        O  0.84370052  0.48538002  0.90115034    -0.78200
C484        C  0.88436297  0.55273146  0.81246767     1.02700
Fe485      Fe  0.88159987  0.32815169  0.18537593     1.65800
Fe486      Fe  0.89084331  0.37426773  0.22145319     1.73200
Fe487      Fe  0.85229058  0.34735689  0.15233995     1.54400
O488        O  0.85605592  0.33053554  0.10392828    -0.82000
O489        O  0.86492408  0.37107658  0.25099711    -0.80300
O490        O  0.88492195  0.33088570  0.11972266    -0.84500
O491        O  0.85053286  0.30514775  0.18126248    -0.79300
O492        O  0.87181469  0.37370661  0.12010794    -0.81100
O493        O  0.89382769  0.35772277  0.27170092    -0.83800
C494        C  0.83351204  0.30475778  0.18639376     0.96900
C495        C  0.87182078  0.32972899  0.09276975     1.04400
O496        O  0.87491376  0.34991036  0.18687057    -1.12800
O497        O  0.91787484  0.37950586  0.19425767    -0.75200
O498        O  0.91345097  0.34805158  0.18970892    -0.78700
O499        O  0.83216512  0.32086364  0.18357706    -0.79400
C500        C  0.92487988  0.36751545  0.18827702     0.95800
O501        O  0.87893685  0.32491225  0.25088235    -0.77400
O502        O  0.88959285  0.39367472  0.17519171    -0.82600
C503        C  0.85034118  0.37144681  0.23165052     0.98500
C504        C  0.88336308  0.39127627  0.13651702     1.04400
O505        O  0.84504120  0.36441296  0.19395927    -0.78200
C506        C  0.88642682  0.33868921  0.27965883     1.02700
Fe507      Fe  0.88146978  0.32320259  0.68565621     1.65800
Fe508      Fe  0.89227991  0.37073878  0.71222827     1.73200
Fe509      Fe  0.85191698  0.34179175  0.64964569     1.54400
O510        O  0.85558750  0.32408957  0.60256140    -0.82000
O511        O  0.86768960  0.36820441  0.74560964    -0.80300
O512        O  0.88382467  0.32323458  0.62000076    -0.84500
O513        O  0.85043515  0.29997327  0.68439346    -0.79300
O514        O  0.87008157  0.36726033  0.61325855    -0.81100
O515        O  0.89793975  0.35655731  0.76337597    -0.83800
C516        C  0.83363536  0.30001210  0.68913501     0.96900
C517        C  0.87093169  0.32216612  0.59251779     1.04400
O518        O  0.87518072  0.34521002  0.68252785    -1.12800
O519        O  0.91746144  0.37445629  0.67985993    -0.75200
O520        O  0.91345993  0.34327905  0.68725675    -0.78700
O521        O  0.83259233  0.31617971  0.68419929    -0.79400
C522        C  0.92450514  0.36232716  0.67840631     0.95800
O523        O  0.87925306  0.32290347  0.75138816    -0.77400
O524        O  0.88857776  0.38850052  0.66573959    -0.82600
C525        C  0.85226736  0.36784684  0.72854390     0.98500
C526        C  0.88095702  0.38521646  0.62823335     1.04400
O527        O  0.84560661  0.35984354  0.69174337    -0.78200
C528        C  0.88843970  0.33808536  0.77665110     1.02700
C529        C  0.91542096  0.35854522  0.96571068    -0.18100
C530        C  0.91771893  0.36003164  0.92122218    -0.20300
C531        C  0.90170189  0.34629261  0.89449426     0.20400
C532        C  0.88324426  0.33076259  0.91276083    -0.03200
C533        C  0.88075512  0.32954530  0.95764286    -0.06300
C534        C  0.89697009  0.34348177  0.98419998     0.20700
C535        C  0.86188769  0.31475060  0.97586196     0.18800
C536        C  0.84595518  0.30086344  0.94912534    -0.17700
C537        C  0.84858481  0.30177776  0.90467944    -0.20000
C538        C  0.86707622  0.31678560  0.88617510     0.20300
C539        C  0.86945396  0.31849108  0.84155765    -0.33000
C540        C  0.88748483  0.33443445  0.82320242     0.01000
C541        C  0.90361166  0.34816358  0.84984494    -0.24300
C542        C  0.89423858  0.34248878  0.02869767    -0.28900
C543        C  0.87527126  0.32831506  0.04684228     0.06700
C544        C  0.85914923  0.31445965  0.02037088    -0.27600
H545        H  0.92796965  0.36941802  0.98566577     0.11400
H546        H  0.93197883  0.37202390  0.90770498     0.12500
H547        H  0.83140599  0.28938368  0.96257408     0.11600
H548        H  0.83599981  0.29097467  0.88471136     0.10800
H549        H  0.85685143  0.30808678  0.82109268     0.16200
H550        H  0.91751164  0.36049419  0.83576644     0.12100
H551        H  0.90651823  0.35344224  0.04914163     0.15000
H552        H  0.84447271  0.30362903  0.03445690     0.14800
C553        C  0.91817089  0.35082187  0.42267250    -0.18100
C554        C  0.91600679  0.34789392  0.46700095    -0.20300
C555        C  0.89691332  0.33383356  0.48485704     0.20400
C556        C  0.88009889  0.32183623  0.45768418    -0.03200
C557        C  0.88242567  0.32441451  0.41288712    -0.06300
C558        C  0.90136925  0.33949339  0.39544175     0.20700
C559        C  0.86551506  0.31266056  0.38574384     0.18800
C560        C  0.84661597  0.29809716  0.40352789    -0.17700
C561        C  0.84416879  0.29594681  0.44795696    -0.08000
C562        C  0.86067874  0.30804979  0.47530804     0.20300
C563        C  0.85789477  0.30738454  0.51984282    -0.33000
C564        C  0.87442320  0.31985799  0.54690953     0.01000
C565        C  0.89405707  0.33239139  0.52936449    -0.24300
C566        C  0.90286564  0.34361269  0.35137796    -0.28900
C567        C  0.88584790  0.33242979  0.32451078     0.06700
C568        C  0.86749775  0.31642917  0.34154765    -0.27600
H569        H  0.93287232  0.36230309  0.40976353     0.11400
H570        H  0.92907786  0.35717004  0.48741225     0.12500
H571        H  0.83351509  0.28890303  0.38312674     0.11600
H572        H  0.82921643  0.28514648  0.46094978     0.10800
H573        H  0.84276624  0.29767524  0.53342241     0.16200
H574        H  0.90676649  0.34218225  0.55022920     0.12100
H575        H  0.91707685  0.35584224  0.33807321     0.15000
H576        H  0.85435208  0.30788369  0.32077988     0.14800
C577        C  0.89307286  0.46069124  0.12325702    -0.18100
C578        C  0.89256507  0.47572426  0.09794712    -0.20300
C579        C  0.89123098  0.47370271  0.05323604     0.20400
C580        C  0.89105132  0.45670470  0.03371103    -0.03200
C581        C  0.89132033  0.44143727  0.05923810    -0.06300
C582        C  0.89211915  0.44334189  0.10425873     0.20700
C583        C  0.88992608  0.42386787  0.03976155     0.18800
C584        C  0.88908006  0.42207070  0.99502351    -0.17700
C585        C  0.88906366  0.43731927  0.96969752    -0.20000
C586        C  0.88974130  0.45451303  0.98875513     0.20300
C587        C  0.88821614  0.46907414  0.96374954    -0.33000
C588        C  0.88728004  0.48540172  0.98316024     0.01000
C589        C  0.88920661  0.48789232  0.02780775    -0.24300
C590        C  0.89100601  0.42743255  0.12947686    -0.28900
C591        C  0.88853769  0.40945627  0.11020742     0.06700
C592        C  0.88851264  0.40799592  0.06538011    -0.27600
H593        H  0.89368195  0.46237633  0.15775747     0.11400
H594        H  0.89279885  0.48872397  0.11338940     0.12500
H595        H  0.88803123  0.40867591  0.97965079     0.11600
H596        H  0.88800743  0.43541432  0.93523854     0.10800
H597        H  0.88647573  0.46698841  0.92934693     0.16200
H598        H  0.88853576  0.50053656  0.04276917     0.12100
H599        H  0.89078666  0.42850066  0.16406593     0.15000
H600        H  0.88669033  0.39417069  0.05045371     0.14800
C601        C  0.84512386  0.40021848  0.85943529    -0.18100
C602        C  0.84431757  0.41662272  0.87849590    -0.20300
C603        C  0.84099779  0.43015065  0.85348928     0.20400
C604        C  0.83756227  0.42658858  0.80910398    -0.03200
C605        C  0.83795044  0.40975150  0.78998556    -0.06300
C606        C  0.84235776  0.39688801  0.81511197     0.20700
C607        C  0.83518978  0.40656723  0.74537004     0.18800
C608        C  0.83145898  0.41986445  0.72053742    -0.17700
C609        C  0.83148909  0.43676538  0.73933247    -0.20000
C610        C  0.83498390  0.44053784  0.78340348     0.20300
C611        C  0.83717226  0.45860226  0.80176969    -0.33000
C612        C  0.84131344  0.46257376  0.84569727     0.01000
C613        C  0.84233812  0.44785404  0.87162184    -0.24300
C614        C  0.84522130  0.38179384  0.79513435    -0.28900
C615        C  0.84357180  0.37925101  0.75039049     0.06700
C616        C  0.83760038  0.39105431  0.72598944    -0.27600
H617        H  0.84847196  0.39046794  0.87921989     0.11400
H618        H  0.84703465  0.41916521  0.91259343     0.12500
H619        H  0.82931615  0.41766238  0.68625552     0.11600
H620        H  0.82934794  0.44722032  0.71915692     0.10800
H621        H  0.83656898  0.46999951  0.78165924     0.16200
H622        H  0.84597380  0.45105749  0.90533608     0.12100
H623        H  0.84988929  0.37280035  0.81409742     0.15000
H624        H  0.83666162  0.38944818  0.69144570     0.14800
C625        C  0.91541201  0.57975776  0.67114908    -0.18100
C626        C  0.91313991  0.57994118  0.62671874    -0.20300
C627        C  0.89352737  0.56999893  0.60811637     0.20400
C628        C  0.87600594  0.56077152  0.63470930    -0.03200
C629        C  0.87828998  0.56090261  0.67953749    -0.06300
C630        C  0.89809858  0.56984752  0.69773062     0.20700
C631        C  0.86073163  0.55113226  0.70595585     0.18800
C632        C  0.84112164  0.54186665  0.68753733    -0.17700
C633        C  0.83887240  0.54142883  0.64310659    -0.20000
C634        C  0.85620599  0.55044450  0.61645503     0.20300
C635        C  0.85408407  0.54831231  0.57193303    -0.33000
C636        C  0.87147527  0.55640588  0.54530903     0.01000
C637        C  0.89112873  0.56804946  0.56347397    -0.24300
C638        C  0.90017099  0.56787038  0.74185805    -0.28900
C639        C  0.88267855  0.55759358  0.76781934     0.06700
C640        C  0.86308665  0.54991232  0.75009170    -0.27600
H641        H  0.93071300  0.58689965  0.68462299     0.11400
H642        H  0.92675154  0.58721200  0.60679747     0.12500
H643        H  0.82751138  0.53435485  0.70743063     0.11600
H644        H  0.82357467  0.53355813  0.62954525     0.10800
H645        H  0.83888701  0.53953727  0.55806642     0.16200
H646        H  0.90459783  0.57429429  0.54311292     0.12100
H647        H  0.91526805  0.57379715  0.75585908     0.15000
H648        H  0.84964486  0.54185633  0.77036987     0.14800
C649        C  0.91648374  0.56426514  0.17011397    -0.18100
C650        C  0.91425408  0.56408400  0.12566466    -0.20300
C651        C  0.89566450  0.56037186  0.10755588     0.20400
C652        C  0.87936652  0.55747935  0.13445800    -0.03200
C653        C  0.88179910  0.55817560  0.17930095    -0.06300
C654        C  0.90026983  0.56106847  0.19715955     0.20700
C655        C  0.86546133  0.55516600  0.20622305     0.18800
C656        C  0.84696262  0.55170253  0.18810589    -0.17700
C657        C  0.84438442  0.55051874  0.14366835    -0.20000
C658        C  0.86038156  0.55310726  0.11660732     0.20300
C659        C  0.85751750  0.55068882  0.07215049    -0.33000
C660        C  0.87360772  0.55325215  0.04538466     0.01000
C661        C  0.89279713  0.55867840  0.06310368    -0.24300
C662        C  0.90188870  0.55991079  0.24163699    -0.28900
C663        C  0.88549114  0.55646047  0.26842656     0.06700
C664        C  0.86759794  0.55477139  0.25071674    -0.27600
H665        H  0.93078245  0.56660220  0.18333027     0.11400
H666        H  0.92689560  0.56630761  0.10542727     0.12500
H667        H  0.83427670  0.54934836  0.20835061     0.11600
H668        H  0.82977051  0.54727820  0.13048117     0.10800
H669        H  0.84272112  0.54648499  0.05836285     0.16200
H670        H  0.90510803  0.56035712  0.04239444     0.12100
H671        H  0.91568099  0.56119807  0.25542652     0.15000
H672        H  0.85484361  0.55180838  0.27144400     0.14800
C673        C  0.88232602  0.43298150  0.46586956    -0.18100
C674        C  0.88314166  0.41757908  0.48924082    -0.20300
C675        C  0.88299382  0.41786289  0.53415408     0.20400
C676        C  0.88201267  0.43384198  0.55571512    -0.03200
C677        C  0.88088757  0.44920260  0.53214903    -0.06300
C678        C  0.88119638  0.44883636  0.48703090     0.20700
C679        C  0.87919922  0.46476956  0.55375874     0.18800
C680        C  0.87881242  0.46492473  0.59863733    -0.17700
C681        C  0.88018909  0.44986030  0.62199503    -0.20000
C682        C  0.88181611  0.43430410  0.60084434     0.20300
C683        C  0.88274436  0.41892981  0.62408169    -0.33000
C684        C  0.88320177  0.40270688  0.60290390     0.01000
C685        C  0.88335505  0.40224580  0.55792865    -0.24300
C686        C  0.88011268  0.46418554  0.46388789    -0.28900
C687        C  0.87830109  0.47967777  0.48520526     0.06700
C688        C  0.87773527  0.47979350  0.53013702    -0.27600
H689        H  0.88241722  0.43240611  0.43122228     0.11400
H690        H  0.88382979  0.40540984  0.47217997     0.12500
H691        H  0.87744151  0.47670893  0.61569635     0.11600
H692        H  0.87980663  0.45027617  0.65663731     0.10800
H693        H  0.88209710  0.41904024  0.65875562     0.16200
H694        H  0.88350219  0.38962144  0.54155807     0.12100
H695        H  0.88008885  0.46373360  0.42920002     0.15000
H696        H  0.87619428  0.49160442  0.54669412     0.14800
C697        C  0.83549251  0.39976441  0.36000032    -0.18100
C698        C  0.83386195  0.41574840  0.37871211    -0.20300
C699        C  0.83262149  0.43034313  0.35301635     0.20400
C700        C  0.83175396  0.42814825  0.30808993    -0.03200
C701        C  0.83292422  0.41173060  0.28924047    -0.06300
C702        C  0.83560007  0.39795079  0.31531948     0.20700
C703        C  0.83295802  0.41002365  0.24427487     0.18800
C704        C  0.83100626  0.42423816  0.21863551    -0.17700
C705        C  0.83037746  0.44080353  0.23730027    -0.20000
C706        C  0.83136429  0.44322820  0.28191793     0.20300
C707        C  0.83367451  0.46122266  0.30065705    -0.33000
C708        C  0.83588404  0.46400051  0.34518401     0.01000
C709        C  0.83403457  0.44798493  0.37129420    -0.24300
C710        C  0.83976323  0.38354811  0.29628380    -0.28900
C711        C  0.84091320  0.38252537  0.25155566     0.06700
C712        C  0.83646390  0.39509351  0.22575360    -0.27600
H713        H  0.83740176  0.38925088  0.38046856     0.11400
H714        H  0.83459330  0.41727051  0.41325644     0.12500
H715        H  0.83095501  0.42310244  0.18405500     0.11600
H716        H  0.82989359  0.45212743  0.21677574     0.10800
H717        H  0.83517759  0.47362511  0.28055818     0.16200
H718        H  0.83607695  0.45025921  0.40562848     0.12100
H719        H  0.84317122  0.37387332  0.31621707     0.15000
H720        H  0.83760446  0.39455236  0.19122378     0.14800
C721        C  0.98929785  0.62834530  0.92412477    -0.18100
C722        C  0.01075575  0.63886948  0.92856229    -0.20300
C723        C  0.02141144  0.62805510  0.93139103     0.20400
C724        C  0.01018507  0.60638013  0.93038762    -0.03200
C725        C  0.98857098  0.59578130  0.92608656    -0.06300
C726        C  0.97802234  0.60677492  0.92250472     0.20700
C727        C  0.97757292  0.57414912  0.92481881     0.18800
C728        C  0.98805270  0.56324381  0.92843387    -0.17700
C729        C  0.00936675  0.57369448  0.93254998    -0.20000
C730        C  0.02054634  0.59522246  0.93327321     0.20300
C731        C  0.04193017  0.60568535  0.93672709    -0.33000
C732        C  0.05346367  0.62731424  0.93763593     0.01000
C733        C  0.04302372  0.63843400  0.93506609    -0.24300
C734        C  0.95650869  0.59598854  0.91659662    -0.28900
C735        C  0.94554081  0.57435152  0.91407339     0.06700
C736        C  0.95630654  0.56368610  0.91913861    -0.27600
H737        H  0.98153668  0.63710572  0.92159671     0.11400
H738        H  0.01903718  0.65550042  0.92944792     0.12500
H739        H  0.97977513  0.54660609  0.92761004     0.11600
H740        H  0.01712776  0.56492364  0.93491789     0.10800
H741        H  0.04958368  0.59679853  0.93883215     0.16200
H742        H  0.05165055  0.65506655  0.93597218     0.12100
H743        H  0.94843681  0.60440583  0.91301199     0.15000
H744        H  0.94816723  0.54704853  0.91794566     0.14800
C745        C  0.98995319  0.56409390  0.39502930    -0.18100
C746        C  0.01137177  0.57509752  0.39738541    -0.20300
C747        C  0.02178706  0.59583580  0.40962854     0.20400
C748        C  0.01055573  0.60570904  0.41891117    -0.03200
C749        C  0.98885005  0.59457469  0.41637549    -0.06300
C750        C  0.97855962  0.57365129  0.40469142     0.20700
C751        C  0.97747241  0.60431760  0.42574057     0.18800
C752        C  0.98799438  0.62515453  0.43751179    -0.17700
C753        C  0.00950406  0.63615845  0.44028506    -0.20000
C754        C  0.02097523  0.62658461  0.43122900     0.20300
C755        C  0.04257946  0.63731512  0.43516937    -0.33000
C756        C  0.05382614  0.62730999  0.42730491     0.01000
C757        C  0.04320742  0.60666801  0.41365939    -0.24300
C758        C  0.95706167  0.56260311  0.40267316    -0.28900
C759        C  0.94544001  0.57211122  0.41156572     0.06700
C760        C  0.95584004  0.59306731  0.42306706    -0.27600
H761        H  0.98228570  0.54805621  0.38579621     0.11400
H762        H  0.01979119  0.56730835  0.39006371     0.12500
H763        H  0.97957272  0.63294141  0.44480070     0.11600
H764        H  0.01716586  0.65215566  0.44979234     0.10800
H765        H  0.05052189  0.65317648  0.44570194     0.16200
H766        H  0.05160654  0.59878409  0.40699014     0.12100
H767        H  0.94939046  0.54656686  0.39337714     0.15000
H768        H  0.94713489  0.60060708  0.42994539     0.14800
C769        C  0.15207186  0.70369405  0.65728354    -0.18100
C770        C  0.15448011  0.70526574  0.70174217    -0.20300
C771        C  0.13823093  0.69213906  0.72867962     0.20400
C772        C  0.11917594  0.67762654  0.71070762    -0.03200
C773        C  0.11690267  0.67570491  0.66583461    -0.06300
C774        C  0.13348509  0.68874311  0.63903915     0.20700
C775        C  0.09833092  0.66021411  0.64784548     0.18800
C776        C  0.08188104  0.64749585  0.67479174    -0.17700
C777        C  0.08397905  0.64970867  0.71926752    -0.20000
C778        C  0.10265616  0.66448055  0.73753297     0.20300
C779        C  0.10539740  0.66575363  0.78206161    -0.33000
C780        C  0.12465984  0.67939174  0.79988451     0.01000
C781        C  0.14092697  0.69272206  0.77315475    -0.24300
C782        C  0.13149281  0.68600845  0.59456043    -0.28900
C783        C  0.11348381  0.66985769  0.57670249     0.06700
C784        C  0.09683789  0.65721825  0.60337199    -0.27600
H785        H  0.16494316  0.71380263  0.63714489     0.11400
H786        H  0.16916301  0.71654820  0.71505382     0.12500
H787        H  0.06749209  0.63560985  0.66148371     0.11600
H788        H  0.07116160  0.63949149  0.73940842     0.10800
H789        H  0.09295354  0.65523415  0.80270451     0.16200
H790        H  0.15579606  0.70319283  0.78699371     0.12100
H791        H  0.14441715  0.69560881  0.57399280     0.15000
H792        H  0.08292299  0.64479306  0.58951500     0.14800
C793        C  0.08586712  0.66072939  0.21830061    -0.18100
C794        C  0.08372849  0.65833493  0.17384050    -0.20300
C795        C  0.10112488  0.66668998  0.14734904     0.20400
C796        C  0.12085752  0.67807561  0.16572609    -0.03200
C797        C  0.12301897  0.68016554  0.21053671    -0.06300
C798        C  0.10544015  0.67129909  0.23699626     0.20700
C799        C  0.14280096  0.69041112  0.22888608     0.18800
C800        C  0.16019098  0.69917343  0.20242271    -0.17700
C801        C  0.15804844  0.69743736  0.15800286    -0.20000
C802        C  0.13849420  0.68670805  0.13943300     0.20300
C803        C  0.13630513  0.68377958  0.09514242    -0.33000
C804        C  0.11682517  0.67167522  0.07706862     0.01000
C805        C  0.09924578  0.66328601  0.10300304    -0.24300
C806        C  0.10780184  0.67230984  0.28164474    -0.28900
C807        C  0.12749988  0.68146875  0.29989205     0.06700
C808        C  0.14489093  0.69093692  0.27338313    -0.27600
H809        H  0.07222130  0.65383594  0.23813477     0.11400
H810        H  0.06848100  0.64966198  0.16022496     0.12500
H811        H  0.17546443  0.70708473  0.21611405     0.11600
H812        H  0.17170582  0.70407131  0.13819971     0.10800
H813        H  0.14981396  0.68993177  0.07487647     0.16200
H814        H  0.08423822  0.65384981  0.08870788     0.12100
H815        H  0.09436211  0.66477072  0.30203830     0.15000
H816        H  0.16009724  0.69805696  0.28742845     0.14800
C817        C  0.98691197  0.41948874  0.61694897    -0.18100
C818        C  0.00824555  0.43096307  0.61390044    -0.20300
C819        C  0.02034310  0.42361012  0.63185168     0.20400
C820        C  0.01091403  0.40421834  0.65189972    -0.03200
C821        C  0.98931033  0.39262716  0.65511432    -0.06300
C822        C  0.97736431  0.40052328  0.63811701     0.20700
C823        C  0.97971697  0.37350722  0.67641381     0.18800
C824        C  0.99190195  0.36589273  0.69302911    -0.17700
C825        C  0.01336992  0.37735328  0.68958515    -0.20000
C826        C  0.02306495  0.39667938  0.66960070     0.20300
C827        C  0.04463585  0.40879881  0.66762384    -0.33000
C828        C  0.05405138  0.42847194  0.64887343     0.01000
C829        C  0.04172258  0.43555576  0.63066278    -0.24300
C830        C  0.95612175  0.38976557  0.64396680    -0.28900
C831        C  0.94645518  0.37127477  0.66710297     0.06700
C832        C  0.95823856  0.36281539  0.68205612    -0.27600
H833        H  0.97789080  0.42566901  0.60356618     0.11400
H834        H  0.01530290  0.44576442  0.59811602     0.12500
H835        H  0.98485139  0.35122806  0.70934437     0.11600
H836        H  0.02240613  0.37124865  0.70321386     0.10800
H837        H  0.05404303  0.40317029  0.68149372     0.16200
H838        H  0.04880317  0.45049130  0.61538285     0.12100
H839        H  0.94712754  0.39621736  0.63168192     0.15000
H840        H  0.95088190  0.34853371  0.69982677     0.14800
C841        C  0.16566087  0.59118782  0.63043834    -0.18100
C842        C  0.16521236  0.60784999  0.61194430    -0.20300
C843        C  0.16591111  0.61011686  0.56731317     0.20400
C844        C  0.16847505  0.59623505  0.54121239    -0.03200
C845        C  0.16834992  0.57911605  0.55976846    -0.06300
C846        C  0.16647389  0.57637371  0.60452503     0.20700
C847        C  0.16838406  0.56391057  0.53328551     0.18800
C848        C  0.17044552  0.56690121  0.48885254    -0.17700
C849        C  0.17115515  0.58416131  0.47053683    -0.20000
C850        C  0.16940015  0.59846476  0.49631657     0.20300
C851        C  0.16666305  0.61381243  0.47778437    -0.33000
C852        C  0.16171464  0.62606436  0.50337157     0.01000
C853        C  0.16232429  0.62485992  0.54815378    -0.24300
C854        C  0.16374597  0.55809777  0.62225751    -0.28900
C855        C  0.16172073  0.54209678  0.59567390     0.06700
C856        C  0.16478907  0.54534584  0.55139019    -0.27600
H857        H  0.16426195  0.58930584  0.66487321     0.11400
H858        H  0.16345649  0.61847421  0.63245523     0.12500
H859        H  0.17071173  0.55549986  0.46812303     0.11600
H860        H  0.17193274  0.58571991  0.43601207     0.10800
H861        H  0.16604005  0.61461181  0.44320142     0.16200
H862        H  0.15861005  0.63439784  0.56788402     0.12100
H863        H  0.16107647  0.55550843  0.65638734     0.15000
H864        H  0.16320720  0.53300544  0.53090034     0.14800
C865        C  0.10731051  0.54652147  0.86924106    -0.18100
C866        C  0.10741015  0.53122812  0.84414376    -0.20300
C867        C  0.10897678  0.53320537  0.79948886     0.20400
C868        C  0.10993742  0.55050347  0.77971308    -0.03200
C869        C  0.11005543  0.56604569  0.80508000    -0.06300
C870        C  0.10890215  0.56407943  0.85006161     0.20700
C871        C  0.11214359  0.58388613  0.78557102     0.18800
C872        C  0.11334902  0.58568445  0.74081245    -0.17700
C873        C  0.11304056  0.57016926  0.71559693    -0.20000
C874        C  0.11160287  0.55265211  0.73477591     0.20300
C875        C  0.11266927  0.53766175  0.71005186    -0.33000
C876        C  0.11266335  0.52091307  0.72989190     0.01000
C877        C  0.11043279  0.51858791  0.77444997    -0.24300
C878        C  0.11025778  0.58007913  0.87522990    -0.28900
C879        C  0.11335075  0.59828810  0.85615084     0.06700
C880        C  0.11383626  0.59993772  0.81127594    -0.27600
H881        H  0.10647804  0.54484338  0.90373560     0.11400
H882        H  0.10664095  0.51801919  0.85972803     0.12500
H883        H  0.11492677  0.59927077  0.72535002     0.11600
H884        H  0.11440046  0.57208655  0.68117078     0.10800
H885        H  0.11473549  0.53965589  0.67569640     0.16200
H886        H  0.11044500  0.50567747  0.78972962     0.12100
H887        H  0.11011316  0.57882103  0.90981027     0.15000
H888        H  0.11615850  0.61395389  0.79644330     0.14800
C889        C  0.99104265  0.36789942  0.19887995    -0.18100
C890        C  0.01249770  0.37830638  0.19441101    -0.20300
C891        C  0.02308571  0.39814987  0.17678844     0.20400
C892        C  0.01177097  0.40740799  0.16312239    -0.03200
C893        C  0.99016087  0.39694149  0.16768366    -0.06300
C894        C  0.97970789  0.37711341  0.18585243     0.20700
C895        C  0.97907473  0.40650432  0.15462232     0.18800
C896        C  0.98949203  0.42611852  0.13621875    -0.17700
C897        C  0.01079370  0.43640432  0.13156216    -0.20000
C898        C  0.02205069  0.42728063  0.14535664     0.20300
C899        C  0.04345043  0.43789973  0.14209595    -0.33000
C900        C  0.05508237  0.42913646  0.15626334     0.01000
C901        C  0.04472694  0.40902726  0.17302615    -0.24300
C902        C  0.95821372  0.36709210  0.19131249    -0.28900
C903        C  0.94720300  0.37690054  0.17955147     0.06700
C904        C  0.95780378  0.39650088  0.16079948    -0.27600
H905        H  0.98332920  0.35269377  0.21290758     0.11400
H906        H  0.02082840  0.37087874  0.20507093     0.12500
H907        H  0.98117893  0.43361011  0.12582115     0.11600
H908        H  0.01850458  0.45163454  0.11762512     0.10800
H909        H  0.05109075  0.45318411  0.12836904     0.16200
H910        H  0.05346708  0.40204645  0.18380475     0.12100
H911        H  0.95018016  0.35201206  0.20591492     0.15000
H912        H  0.94945751  0.40409059  0.15120042     0.14800
C913        C  0.17135861  0.60751566  0.10118066    -0.18100
C914        C  0.17238028  0.59109517  0.11942684    -0.20300
C915        C  0.17001607  0.57469361  0.09389419     0.20400
C916        C  0.16795563  0.57548874  0.04915333    -0.03200
C917        C  0.16738243  0.59229709  0.03061896    -0.06300
C918        C  0.16826674  0.60796907  0.05699705     0.20700
C919        C  0.16442383  0.59264433  0.98610480     0.18800
C920        C  0.16281321  0.57661200  0.96036214    -0.17700
C921        C  0.16292816  0.55976623  0.97883656    -0.20000
C922        C  0.16491527  0.55879530  0.02330127     0.20300
C923        C  0.16229829  0.54081594  0.04265412    -0.33000
C924        C  0.16286494  0.53939798  0.08746419     0.01000
C925        C  0.16796800  0.55682690  0.11264388    -0.24300
C926        C  0.16466236  0.62299380  0.03914412    -0.28900
C927        C  0.16076960  0.62282860  0.99511585     0.06700
C928        C  0.16165720  0.60821002  0.96854427    -0.27600
H929        H  0.17226970  0.61950127  0.12185073     0.11400
H930        H  0.17402270  0.59075052  0.15381750     0.12500
H931        H  0.16053426  0.57665148  0.92613165     0.11600
H932        H  0.16071131  0.54715223  0.95849945     0.10800
H933        H  0.15840914  0.52744000  0.02311756     0.16200
H934        H  0.16819341  0.55576549  0.14722931     0.12100
H935        H  0.16388403  0.63418783  0.05969081     0.15000
H936        H  0.15828080  0.60780888  0.93469900     0.14800
C937        C  0.12190564  0.57228624  0.21818637    -0.18100
C938        C  0.12197144  0.58765507  0.24338744    -0.20300
C939        C  0.11870027  0.58493765  0.28769195     0.20400
C940        C  0.11511948  0.56647108  0.30683015    -0.03200
C941        C  0.11532916  0.55105021  0.28145684    -0.06300
C942        C  0.11873305  0.55401048  0.23693141     0.20700
C943        C  0.11272945  0.53296271  0.30078345     0.18800
C944        C  0.10925901  0.53018454  0.34506405    -0.17700
C945        C  0.10875657  0.54535438  0.37013038    -0.20000
C946        C  0.11189160  0.56365035  0.35141633     0.20300
C947        C  0.11250105  0.57942722  0.37660615    -0.33000
C948        C  0.11674574  0.59815052  0.35785380     0.01000
C949        C  0.11952660  0.60061591  0.31328260    -0.24300
C950        C  0.11957730  0.53895525  0.21210174    -0.28900
C951        C  0.11782596  0.52131679  0.23135049     0.06700
C952        C  0.11425502  0.51830234  0.27564331    -0.27600
H953        H  0.12468226  0.57484047  0.18411094     0.11400
H954        H  0.12478529  0.60177334  0.22825621     0.12500
H955        H  0.10716829  0.51637220  0.36040738     0.11600
H956        H  0.10628558  0.54293274  0.40429479     0.10800
H957        H  0.11060272  0.57748355  0.41098443     0.16200
H958        H  0.12278469  0.61496758  0.29853544     0.12100
H959        H  0.12270614  0.54146732  0.17808189     0.15000
H960        H  0.11297004  0.50470889  0.29051324     0.14800
C961        C  0.08406194  0.43361386  0.87624578    -0.18100
C962        C  0.08226220  0.43313553  0.92081152    -0.20300
C963        C  0.09925353  0.43786724  0.94676714     0.20400
C964        C  0.11804245  0.44232106  0.92774376    -0.03200
C965        C  0.11999138  0.44328530  0.88280794    -0.06300
C966        C  0.10295925  0.43913143  0.85698147     0.20700
C967        C  0.13923045  0.44942600  0.86384465     0.18800
C968        C  0.15598842  0.45328292  0.88977484    -0.17700
C969        C  0.15393341  0.45186072  0.93431458    -0.20000
C970        C  0.13518009  0.44688777  0.95361337     0.20300
C971        C  0.13356999  0.44756556  0.99821663    -0.33000
C972        C  0.11536208  0.44466032  0.01690296     0.01000
C973        C  0.09811491  0.43930414  0.99126570    -0.24300
C974        C  0.10539362  0.44158743  0.81252314    -0.28900
C975        C  0.12480006  0.44898020  0.79391465     0.06700
C976        C  0.14157042  0.45250514  0.81950324    -0.27600
H977        H  0.07084958  0.43035021  0.85686048     0.11400
H978        H  0.06770538  0.42954191  0.93498004     0.12500
H979        H  0.17080872  0.45785028  0.87565390     0.11600
H980        H  0.16721019  0.45536636  0.95371655     0.10800
H981        H  0.14691638  0.45190602  0.01813677     0.16200
H982        H  0.08406833  0.43701786  0.00591752     0.12100
H983        H  0.09254139  0.43911817  0.79270874     0.15000
H984        H  0.15653368  0.45818157  0.80495257     0.14800
C985        C  0.08780970  0.42912326  0.37515885    -0.18100
C986        C  0.08561125  0.42900462  0.41962757    -0.20300
C987        C  0.10296642  0.43792395  0.44618836     0.20400
C988        C  0.12273109  0.44653405  0.42789128    -0.03200
C989        C  0.12495496  0.44700890  0.38304494    -0.06300
C990        C  0.10740719  0.43838948  0.35654386     0.20700
C991        C  0.14475607  0.45682647  0.36473348     0.18800
C992        C  0.16210470  0.46532171  0.39130734    -0.17700
C993        C  0.15989891  0.46452420  0.43577575    -0.20000
C994        C  0.14031610  0.45544256  0.45431731     0.20300
C995        C  0.13803812  0.45595573  0.49868427    -0.33000
C996        C  0.11851020  0.44845808  0.51660476     0.01000
C997        C  0.10100255  0.43919726  0.49053039    -0.24300
C998        C  0.10979458  0.43997381  0.31193874    -0.28900
C999        C  0.12948944  0.45065029  0.29366421     0.06700
C1000       C  0.14687894  0.45867572  0.32020368    -0.27600
H1001       H  0.07419422  0.42244433  0.35527583     0.11400
H1002       H  0.07034177  0.42225155  0.43321144     0.12500
H1003       H  0.17740143  0.47287673  0.37767659     0.11600
H1004       H  0.17352319  0.47147335  0.45564413     0.10800
H1005       H  0.15149873  0.46338734  0.51904779     0.16200
H1006       H  0.08596492  0.43355617  0.50470158     0.12100
H1007       H  0.09635484  0.43398983  0.29157934     0.15000
H1008       H  0.16209596  0.46687815  0.30617880     0.14800
C1009       C  0.20267340  0.43235350  0.61676142    -0.18100
C1010       C  0.22074333  0.43188546  0.60908566    -0.20300
C1011       C  0.24000239  0.44962589  0.61464563     0.20400
C1012       C  0.24101226  0.46802982  0.62795949    -0.03200
C1013       C  0.22280181  0.46851379  0.63561225    -0.06300
C1014       C  0.20353505  0.45058104  0.63006119     0.20700
C1015       C  0.22390767  0.48697258  0.64873423     0.18800
C1016       C  0.24311242  0.50472452  0.65425982    -0.17700
C1017       C  0.26112460  0.50424431  0.64670436    -0.20000
C1018       C  0.26021976  0.48600075  0.63351483     0.20300
C1019       C  0.27823168  0.48550862  0.62557930    -0.33000
C1020       C  0.27748038  0.46729768  0.61208518     0.01000
C1021       C  0.25825140  0.44935041  0.60689846    -0.24300
C1022       C  0.18550844  0.45122740  0.63780859    -0.28900
C1023       C  0.18651769  0.46963798  0.65070836     0.06700
C1024       C  0.20581844  0.48741770  0.65606051    -0.27600
H1025       H  0.18801220  0.41844890  0.61225084     0.11400
H1026       H  0.21964986  0.41763247  0.59878487     0.12500
H1027       H  0.24420598  0.51900569  0.66436299     0.11600
H1028       H  0.27578165  0.51817103  0.65109585     0.10800
H1029       H  0.29290840  0.49944726  0.62979965     0.16200
H1030       H  0.25746843  0.43527643  0.59626039     0.12100
H1031       H  0.17071724  0.43744783  0.63345072     0.15000
H1032       H  0.20681280  0.50165640  0.66620670     0.14800
C1033       C  0.20602556  0.42928574  0.13201470    -0.18100
C1034       C  0.22431596  0.42914940  0.12440717    -0.20300
C1035       C  0.24283092  0.44758808  0.11733603     0.20400
C1036       C  0.24279259  0.46630206  0.11768787    -0.03200
C1037       C  0.22435224  0.46643332  0.12524049    -0.06300
C1038       C  0.20586028  0.44785822  0.13263487     0.20700
C1039       C  0.22449785  0.48521943  0.12565753     0.18800
C1040       C  0.24290351  0.50363973  0.11828869    -0.17700
C1041       C  0.26110254  0.50351403  0.11091176    -0.20000
C1042       C  0.26121357  0.48496505  0.11071751     0.20300
C1043       C  0.27950496  0.48487806  0.10379902    -0.33000
C1044       C  0.27988242  0.46639546  0.10349673     0.01000
C1045       C  0.26137858  0.44772165  0.11010970    -0.24300
C1046       C  0.18764680  0.44825858  0.14083672    -0.28900
C1047       C  0.18775360  0.46704811  0.14179283     0.06700
C1048       C  0.20631630  0.48538500  0.13378864    -0.27600
H1049       H  0.19200742  0.41484730  0.13756713     0.11400
H1050       H  0.22398715  0.41461028  0.12423559     0.12500
H1051       H  0.24325032  0.51819139  0.11845388     0.11600
H1052       H  0.27513249  0.51796541  0.10550438     0.10800
H1053       H  0.29352602  0.49936468  0.09852114     0.16200
H1054       H  0.26141639  0.43336003  0.10991706     0.12100
H1055       H  0.17349743  0.43400795  0.14689900     0.15000
H1056       H  0.20673169  0.49997430  0.13420074     0.14800
C1057       C  0.34724144  0.43070171  0.83067591    -0.18100
C1058       C  0.34554758  0.43067176  0.87529164    -0.20300
C1059       C  0.33377226  0.43808186  0.89485176     0.20400
C1060       C  0.32320000  0.44514531  0.86908854    -0.03200
C1061       C  0.32459679  0.44481602  0.82407577    -0.06300
C1062       C  0.33697294  0.43788894  0.80482907     0.20700
C1063       C  0.31409624  0.45198355  0.79839952     0.18800
C1064       C  0.30237034  0.45945423  0.81789276    -0.17700
C1065       C  0.30129678  0.46013105  0.86248063    -0.20000
C1066       C  0.31175007  0.45314387  0.88828513     0.20300
C1067       C  0.31155721  0.45471860  0.93291008    -0.33000
C1068       C  0.32246349  0.44821936  0.95874506     0.01000
C1069       C  0.33304475  0.43934108  0.93964105    -0.24300
C1070       C  0.33929117  0.43880390  0.76018088    -0.28900
C1071       C  0.32890391  0.44596381  0.73459926     0.06700
C1072       C  0.31601845  0.45213664  0.75374784    -0.27600
H1073       H  0.35675463  0.42528524  0.81638789     0.11400
H1074       H  0.35380564  0.42524840  0.89453892     0.12500
H1075       H  0.29431607  0.46511119  0.79865107     0.11600
H1076       H  0.29246242  0.46633143  0.87679942     0.10800
H1077       H  0.30338365  0.46157114  0.94760790     0.16200
H1078       H  0.34171912  0.43460352  0.95947641     0.12100
H1079       H  0.34935717  0.43420939  0.74528022     0.15000
H1080       H  0.30836136  0.45806859  0.73396245     0.14800
C1081       C  0.30268845  0.46733337  0.36019456    -0.18100
C1082       C  0.30431558  0.46637048  0.31578696    -0.20300
C1083       C  0.31298312  0.45538917  0.29784276     0.20400
C1084       C  0.31959014  0.44481738  0.32478089    -0.03200
C1085       C  0.31763579  0.44551507  0.36952191    -0.06300
C1086       C  0.30950272  0.45714985  0.38729279     0.20700
C1087       C  0.32453949  0.43521772  0.39648365     0.18800
C1088       C  0.33306052  0.42410859  0.37850347    -0.17700
C1089       C  0.33533397  0.42371514  0.33417662    -0.20000
C1090       C  0.32890442  0.43422647  0.30712255     0.20300
C1091       C  0.33235898  0.43504564  0.26291320    -0.33000
C1092       C  0.32613303  0.44585673  0.23632173     0.01000
C1093       C  0.31597817  0.45551332  0.25359247    -0.24300
C1094       C  0.30906899  0.45903657  0.43182967    -0.28900
C1095       C  0.31651002  0.44931756  0.45883188     0.06700
C1096       C  0.32362714  0.43692603  0.44096841    -0.27600
H1097       H  0.29638986  0.47630959  0.37337089     0.11400
H1098       H  0.29924060  0.47460847  0.29551880     0.12500
H1099       H  0.33844177  0.41614404  0.39879569     0.11600
H1100       H  0.34243293  0.41546031  0.32109030     0.10800
H1101       H  0.34037631  0.42779938  0.24925586     0.16200
H1102       H  0.31155807  0.46415032  0.23280467     0.12100
H1103       H  0.30351661  0.46858419  0.44546110     0.15000
H1104       H  0.32959842  0.42959707  0.46160643     0.14800
C1105       C  0.45537504  0.56636643  0.03864124    -0.18100
C1106       C  0.47049464  0.58219763  0.01376699    -0.20300
C1107       C  0.46918431  0.58133854  0.96892711     0.20400
C1108       C  0.45274700  0.56410156  0.94891306    -0.03200
C1109       C  0.43738130  0.54823251  0.97400861    -0.06300
C1110       C  0.43862373  0.54946351  0.01910783     0.20700
C1111       C  0.42039536  0.53154547  0.95397234     0.18800
C1112       C  0.41925988  0.53048834  0.90914054    -0.17700
C1113       C  0.43459741  0.54608474  0.88427823    -0.20000
C1114       C  0.45125866  0.56305091  0.90384225     0.20300
C1115       C  0.46605701  0.57931121  0.87916792    -0.33000
C1116       C  0.48200022  0.59689609  0.89892588     0.01000
C1117       C  0.48362457  0.59769753  0.94380302    -0.24300
C1118       C  0.42265295  0.53424979  0.04381309    -0.28900
C1119       C  0.40521426  0.51816669  0.02395679     0.06700
C1120       C  0.40442267  0.51666452  0.97906630    -0.27600
H1121       H  0.45654081  0.56757811  0.07320761     0.11400
H1122       H  0.48303944  0.59528569  0.02962718     0.12500
H1123       H  0.40632044  0.51777279  0.89330301     0.11600
H1124       H  0.43319776  0.54508987  0.84971975     0.10800
H1125       H  0.46456698  0.57873089  0.84459868     0.16200
H1126       H  0.49591102  0.61121923  0.95913848     0.12100
H1127       H  0.42321073  0.53563429  0.07840197     0.15000
H1128       H  0.39101949  0.50426743  0.96364253     0.14800
C1129       C  0.39813860  0.55569548  0.77375820    -0.18100
C1130       C  0.41510670  0.57260015  0.79234799    -0.20300
C1131       C  0.42933294  0.58888562  0.76678033     0.20400
C1132       C  0.42619179  0.58840921  0.72218680    -0.03200
C1133       C  0.40883414  0.57156403  0.70356265    -0.06300
C1134       C  0.39499293  0.55492962  0.72937768     0.20700
C1135       C  0.40593921  0.57088132  0.65884938     0.18800
C1136       C  0.42026519  0.58706303  0.63325074    -0.17700
C1137       C  0.43768989  0.60353680  0.65160688    -0.20000
C1138       C  0.44092024  0.60424355  0.69592739     0.20300
C1139       C  0.45908514  0.61993239  0.71418636    -0.33000
C1140       C  0.46240686  0.62025536  0.75843063     0.01000
C1141       C  0.44719955  0.60508292  0.78469958    -0.24300
C1142       C  0.37900206  0.53733156  0.71004170    -0.28900
C1143       C  0.37658058  0.53629406  0.66534991     0.06700
C1144       C  0.38952289  0.55345040  0.64018417    -0.27600
H1145       H  0.38770634  0.54303381  0.79398733     0.11400
H1146       H  0.41742402  0.57266220  0.82658719     0.12500
H1147       H  0.41832723  0.58666259  0.59884202     0.11600
H1148       H  0.44884125  0.61554433  0.63102190     0.10800
H1149       H  0.47098567  0.63144116  0.69390262     0.16200
H1150       H  0.45004073  0.60498249  0.81870372     0.12100
H1151       H  0.36915608  0.52401358  0.72942339     0.15000
H1152       H  0.38800949  0.55250478  0.60561897     0.14800
C1153       C  0.56495385  0.64968339  0.53813922    -0.18100
C1154       C  0.56489601  0.64761088  0.58262242    -0.20300
C1155       C  0.56136248  0.66046955  0.60944640     0.20400
C1156       C  0.55855280  0.67603695  0.59134989    -0.03200
C1157       C  0.55813099  0.67781510  0.54645050    -0.06300
C1158       C  0.56116385  0.66443532  0.51975563     0.20700
C1159       C  0.55375111  0.69234295  0.52833466     0.18800
C1160       C  0.55105593  0.70575340  0.55516685    -0.17700
C1161       C  0.55195385  0.70431209  0.59966104    -0.20000
C1162       C  0.55524757  0.68923253  0.61806146     0.20300
C1163       C  0.55433980  0.68648500  0.66257941    -0.33000
C1164       C  0.55583816  0.67019929  0.68050145     0.01000
C1165       C  0.55973188  0.65749353  0.65389414    -0.24300
C1166       C  0.55937575  0.66539385  0.47526313    -0.28900
C1167       C  0.55370759  0.67890562  0.45734907     0.06700
C1168       C  0.55127196  0.69258984  0.48387731    -0.27600
H1169       H  0.56733284  0.63931580  0.51808697     0.11400
H1170       H  0.56722304  0.63568675  0.59602899     0.12500
H1171       H  0.54784848  0.71709402  0.54176013     0.11600
H1172       H  0.54943241  0.71458564  0.61971133     0.10800
H1173       H  0.55113776  0.69616672  0.68308116     0.16200
H1174       H  0.56098278  0.64498862  0.66777588     0.12100
H1175       H  0.56103157  0.65468720  0.45475644     0.15000
H1176       H  0.54695433  0.70304361  0.46993829     0.14800
C1177       C  0.56710397  0.65096158  0.08240725    -0.18100
C1178       C  0.56694072  0.65296166  0.03798430    -0.20300
C1179       C  0.56184726  0.66681779  0.01976656     0.20400
C1180       C  0.55762179  0.67936011  0.04651050    -0.03200
C1181       C  0.55827188  0.67769052  0.09134571    -0.06300
C1182       C  0.56247484  0.66300662  0.10928309     0.20700
C1183       C  0.55380276  0.69003881  0.11816062     0.18800
C1184       C  0.54907245  0.70416354  0.09990298    -0.17700
C1185       C  0.54794358  0.70546357  0.05542408    -0.20000
C1186       C  0.55186563  0.69290206  0.02850293     0.20300
C1187       C  0.54934601  0.69301425  0.98404375    -0.33000
C1188       C  0.55312680  0.68022028  0.95748739     0.01000
C1189       C  0.56000042  0.66767627  0.97534728    -0.24300
C1190       C  0.56105492  0.65998048  0.15363942    -0.28900
C1191       C  0.55599001  0.67178021  0.18026059     0.06700
C1192       C  0.55313823  0.68729644  0.16263292    -0.27600
H1193       H  0.57047044  0.63971401  0.09573097     0.11400
H1194       H  0.57020876  0.64323164  0.01784831     0.12500
H1195       H  0.54561826  0.71375630  0.12004581     0.11600
H1196       H  0.54364517  0.71603252  0.04210049     0.10800
H1197       H  0.54401397  0.70266840  0.97012470     0.16200
H1198       H  0.56260410  0.65758568  0.95481394     0.12100
H1199       H  0.56328979  0.64805126  0.16744372     0.15000
H1200       H  0.54900073  0.69622519  0.18330011     0.14800
C1201       C  0.46795732  0.58087135  0.50771214    -0.18100
C1202       C  0.45226481  0.56535564  0.53210461    -0.20300
C1203       C  0.43428250  0.55012694  0.51236176     0.20400
C1204       C  0.43215388  0.55040976  0.46752438    -0.03200
C1205       C  0.44809919  0.56590821  0.44285107    -0.06300
C1206       C  0.46598454  0.58133428  0.46313891     0.20700
C1207       C  0.44594785  0.56621256  0.39801958     0.18800
C1208       C  0.42787745  0.55111439  0.37831794    -0.17700
C1209       C  0.41196152  0.53592247  0.40284205    -0.20000
C1210       C  0.41393917  0.53546220  0.44742655     0.20300
C1211       C  0.39787390  0.52055620  0.47233134    -0.33000
C1212       C  0.39985350  0.52022461  0.51703882     0.01000
C1213       C  0.41821161  0.53490336  0.53675631    -0.24300
C1214       C  0.48133603  0.59723512  0.43863538    -0.28900
C1215       C  0.47919467  0.59769355  0.39405964     0.06700
C1216       C  0.46166263  0.58193144  0.37385055    -0.27600
H1217       H  0.48158028  0.59260334  0.52375277     0.11400
H1218       H  0.45408968  0.56541284  0.56651105     0.12500
H1219       H  0.42595103  0.55119477  0.34396556     0.11600
H1220       H  0.39806118  0.52458265  0.38695155     0.10800
H1221       H  0.38372260  0.50933494  0.45697596     0.16200
H1222       H  0.41968284  0.53497966  0.57128626     0.12100
H1223       H  0.49481819  0.60943813  0.45424701     0.15000
H1224       H  0.45980085  0.58246761  0.33954318     0.14800
C1225       C  0.41349103  0.57851634  0.28902651    -0.18100
C1226       C  0.39699046  0.56111874  0.27055155    -0.20300
C1227       C  0.39512024  0.55902654  0.22588538     0.20400
C1228       C  0.40963109  0.57497951  0.19957152    -0.03200
C1229       C  0.42654042  0.59233994  0.21821944    -0.06300
C1230       C  0.42857377  0.59396927  0.26316174     0.20700
C1231       C  0.44203835  0.60739536  0.19189137     0.18800
C1232       C  0.43985069  0.60559442  0.14723646    -0.17700
C1233       C  0.42288535  0.58861687  0.12876269    -0.20000
C1234       C  0.40794610  0.57302114  0.15461827     0.20300
C1235       C  0.39212701  0.55493697  0.13633536    -0.33000
C1236       C  0.37852035  0.53841626  0.16236588     0.01000
C1237       C  0.37975416  0.54077756  0.20710619    -0.24300
C1238       C  0.44633002  0.61024241  0.28138956    -0.28900
C1239       C  0.46255024  0.62429826  0.25530076     0.06700
C1240       C  0.46004268  0.62318707  0.21060964    -0.27600
H1241       H  0.41486956  0.57951339  0.32358333     0.11400
H1242       H  0.38598149  0.54905146  0.29121856     0.12500
H1243       H  0.45155707  0.61702949  0.12655970     0.11600
H1244       H  0.42185119  0.58731221  0.09419928     0.10800
H1245       H  0.39154574  0.55303618  0.10185767     0.16200
H1246       H  0.36940764  0.52801817  0.22726817     0.12100
H1247       H  0.44835840  0.61077075  0.31582270     0.15000
H1248       H  0.47258745  0.63389368  0.19041788     0.14800
C1249       C  0.36970022  0.36198977  0.56631785    -0.18100
C1250       C  0.35901877  0.37283917  0.56830024    -0.20300
C1251       C  0.36926107  0.39383742  0.57894770     0.20400
C1252       C  0.39049797  0.40382784  0.58794431    -0.03200
C1253       C  0.40121181  0.39286181  0.58633279    -0.06300
C1254       C  0.39086351  0.37184695  0.57516941     0.20700
C1255       C  0.42238828  0.40307277  0.59553736     0.18800
C1256       C  0.43268665  0.42395074  0.60649908    -0.17700
C1257       C  0.42217794  0.43476835  0.60781475    -0.20000
C1258       C  0.40115532  0.42487440  0.59842193     0.20300
C1259       C  0.39073439  0.43581890  0.59948783    -0.33000
C1260       C  0.36954779  0.42623928  0.59082251     0.01000
C1261       C  0.35880259  0.40507122  0.58078676    -0.24300
C1262       C  0.40197834  0.36129584  0.57240014    -0.28900
C1263       C  0.42332562  0.37165066  0.58061300     0.06700
C1264       C  0.43313191  0.39245213  0.59293768    -0.27600
H1265       H  0.36139610  0.34587694  0.55768734     0.11400
H1266       H  0.34274117  0.36480556  0.56125682     0.12500
H1267       H  0.44895733  0.43199013  0.61368031     0.11600
H1268       H  0.43053386  0.45093107  0.61608324     0.10800
H1269       H  0.39927312  0.45196891  0.60789047     0.16200
H1270       H  0.34249119  0.39744344  0.57419437     0.12100
H1271       H  0.39417139  0.34529819  0.56285687     0.15000
H1272       H  0.44943926  0.40067576  0.59983894     0.14800
C1273       C  0.42487457  0.43461680  0.12058457    -0.18100
C1274       C  0.43537621  0.42389630  0.11641849    -0.20300
C1275       C  0.42506168  0.40346241  0.10235165     0.20400
C1276       C  0.40389445  0.39352802  0.09309937    -0.03200
C1277       C  0.39326402  0.40438425  0.09731153    -0.06300
C1278       C  0.40392088  0.42504794  0.11072262     0.20700
C1279       C  0.37213192  0.39471973  0.08751666     0.18800
C1280       C  0.36181050  0.37410576  0.07418468    -0.17700
C1281       C  0.37239368  0.36331485  0.06990471    -0.20000
C1282       C  0.39348198  0.37292834  0.07896345     0.20300
C1283       C  0.40448068  0.36254647  0.07333599    -0.33000
C1284       C  0.42574453  0.37269775  0.08133687     0.01000
C1285       C  0.43574366  0.39299967  0.09658282    -0.24300
C1286       C  0.39359117  0.43599208  0.11352031    -0.28900
C1287       C  0.37264624  0.42678023  0.10301471     0.06700
C1288       C  0.36186804  0.40597120  0.09064606    -0.27600
H1289       H  0.43320200  0.45048197  0.13106482     0.11400
H1290       H  0.45162816  0.43166705  0.12371070     0.12500
H1291       H  0.34559443  0.36638823  0.06661765     0.11600
H1292       H  0.36412083  0.34750670  0.05908706     0.10800
H1293       H  0.39666938  0.34688338  0.06156781     0.16200
H1294       H  0.45205778  0.40087949  0.10340857     0.12100
H1295       H  0.40205383  0.45189050  0.12380716     0.15000
H1296       H  0.34570164  0.39869091  0.08277714     0.14800
C1297       C  0.44708849  0.29318814  0.80978062    -0.18100
C1298       C  0.44662254  0.29501155  0.85425416    -0.20300
C1299       C  0.44235646  0.30948174  0.87251499     0.20400
C1300       C  0.43760756  0.32161014  0.84577836    -0.03200
C1301       C  0.43753993  0.31937917  0.80093110    -0.06300
C1302       C  0.44292396  0.30554298  0.78288344     0.20700
C1303       C  0.43311238  0.33173521  0.77415961     0.18800
C1304       C  0.42840702  0.34589009  0.79245841    -0.17700
C1305       C  0.42895321  0.34844163  0.83687769    -0.20000
C1306       C  0.43390692  0.33665422  0.86373217     0.20300
C1307       C  0.43613411  0.34025310  0.90799167    -0.33000
C1308       C  0.44145963  0.32862082  0.93451002     0.01000
C1309       C  0.44377349  0.31275747  0.91685892    -0.24300
C1310       C  0.44505707  0.30507284  0.73838153    -0.28900
C1311       C  0.44135344  0.31786254  0.71175677     0.06700
C1312       C  0.43459415  0.33053542  0.72962940    -0.27600
H1313       H  0.45112314  0.28241078  0.79641539     0.11400
H1314       H  0.45028010  0.28558193  0.87435084     0.12500
H1315       H  0.42497319  0.35548050  0.77234622     0.11600
H1316       H  0.42592516  0.35994229  0.85017737     0.10800
H1317       H  0.43424072  0.35241828  0.92174527     0.16200
H1318       H  0.44805387  0.30391142  0.93734512     0.12100
H1319       H  0.45033586  0.29534772  0.72449194     0.15000
H1320       H  0.43207321  0.34064417  0.70906796     0.14800
C1321       C  0.44223597  0.35712949  0.29250705    -0.18100
C1322       C  0.44235025  0.35913168  0.33701335    -0.20300
C1323       C  0.44349074  0.34475101  0.36361836     0.20400
C1324       C  0.44421191  0.32799956  0.34525941    -0.03200
C1325       C  0.44454864  0.32622525  0.30034750    -0.06300
C1326       C  0.44354454  0.34087087  0.27389659     0.20700
C1327       C  0.44653612  0.31017668  0.28196492     0.18800
C1328       C  0.44731353  0.29560217  0.30857553    -0.17700
C1329       C  0.44649654  0.29709170  0.35308907    -0.20000
C1330       C  0.44521748  0.31336630  0.37174836     0.20300
C1331       C  0.44564619  0.31566582  0.41637686    -0.33000
C1332       C  0.44586047  0.33281085  0.43472469     0.01000
C1333       C  0.44453446  0.34715261  0.40819975    -0.24300
C1334       C  0.44458790  0.33939985  0.22935900    -0.28900
C1335       C  0.44747626  0.32401033  0.21112440     0.06700
C1336       C  0.44833416  0.30937757  0.23740388    -0.27600
H1337       H  0.44154384  0.36853427  0.27263081     0.11400
H1338       H  0.44175057  0.37205315  0.35063430     0.12500
H1339       H  0.44875972  0.28315481  0.29496600     0.11600
H1340       H  0.44731777  0.28575690  0.37295900     0.10800
H1341       H  0.44692088  0.30472326  0.43674728     0.16200
H1342       H  0.44464081  0.36036344  0.42231214     0.12100
H1343       H  0.44433912  0.35090194  0.20894207     0.15000
H1344       H  0.45070989  0.29760778  0.22313045     0.14800
C1345       C  0.75670100  0.49720786  0.88100383    -0.18100
C1346       C  0.73839834  0.49727893  0.87437625    -0.20300
C1347       C  0.73854276  0.51587514  0.86977503     0.20400
C1348       C  0.75734206  0.53459158  0.87142382    -0.03200
C1349       C  0.77587383  0.53451937  0.87814501    -0.06300
C1350       C  0.77548918  0.51573226  0.88319587     0.20700
C1351       C  0.79471395  0.55321108  0.88024807     0.18800
C1352       C  0.79484010  0.57178637  0.87493305    -0.17700
C1353       C  0.77648277  0.57185681  0.86822180    -0.20000
C1354       C  0.75761223  0.55335410  0.86669856     0.20300
C1355       C  0.73903674  0.55326749  0.86067504    -0.33000
C1356       C  0.72015377  0.53462061  0.85920008     0.01000
C1357       C  0.72018110  0.51601548  0.86369702    -0.24300
C1358       C  0.79382228  0.51573887  0.89091639    -0.28900
C1359       C  0.81271963  0.53428395  0.89403245     0.06700
C1360       C  0.81301032  0.55299108  0.88815512    -0.27600
H1361       H  0.75613772  0.48263898  0.88472952     0.11400
H1362       H  0.72409325  0.48276165  0.87306797     0.12500
H1363       H  0.80914336  0.58630015  0.87627667     0.11600
H1364       H  0.77704134  0.58642079  0.86448252     0.10800
H1365       H  0.73931109  0.56770218  0.85700512     0.16200
H1366       H  0.70584558  0.50151308  0.86256211     0.12100
H1367       H  0.79326649  0.50119287  0.89513425     0.15000
H1368       H  0.82741227  0.56738834  0.89020325     0.14800
C1369       C  0.62696811  0.63766864  0.82392580    -0.18100
C1370       C  0.63755889  0.62690772  0.82901996    -0.20300
C1371       C  0.62710029  0.60615833  0.84137634     0.20400
C1372       C  0.60577680  0.59632069  0.84925302    -0.03200
C1373       C  0.59512095  0.60716662  0.84421865    -0.06300
C1374       C  0.60569990  0.62791746  0.83114076     0.20700
C1375       C  0.57378913  0.59709121  0.85165991     0.18800
C1376       C  0.56331869  0.57650142  0.86473372    -0.17700
C1377       C  0.57382803  0.56580082  0.86967635    -0.20000
C1378       C  0.59497874  0.57552210  0.86165226     0.20300
C1379       C  0.60538484  0.56463251  0.86542927    -0.33000
C1380       C  0.62658744  0.57404942  0.85707371     0.01000
C1381       C  0.63744467  0.59498261  0.84554222    -0.24300
C1382       C  0.59472621  0.63833040  0.82473207    -0.28900
C1383       C  0.57329182  0.62808625  0.83089485     0.06700
C1384       C  0.56312626  0.60757766  0.84512825    -0.27600
H1385       H  0.63540068  0.65358812  0.81394379     0.11400
H1386       H  0.65392042  0.63478091  0.82290224     0.12500
H1387       H  0.54693539  0.56859112  0.87067321     0.11600
H1388       H  0.56536083  0.54983851  0.87938957     0.10800
H1389       H  0.59679898  0.54863734  0.87492862     0.16200
H1390       H  0.65377558  0.60244955  0.83921617     0.12100
H1391       H  0.60272899  0.65412051  0.81381433     0.15000
H1392       H  0.54669159  0.59954453  0.85058298     0.14800
C1393       C  0.58473388  0.42440742  0.04171405    -0.18100
C1394       C  0.60176690  0.44135421  0.02355692    -0.20300
C1395       C  0.60417399  0.44310668  0.97897033     0.20400
C1396       C  0.58958642  0.42733731  0.95239255    -0.03200
C1397       C  0.57217653  0.41041094  0.97068915    -0.06300
C1398       C  0.56972874  0.40905298  0.01556065     0.20700
C1399       C  0.55669250  0.39549949  0.94406989     0.18800
C1400       C  0.55930201  0.39709024  0.89947350    -0.17700
C1401       C  0.57677071  0.41365807  0.88135259    -0.20000
C1402       C  0.59177145  0.42906495  0.90748241     0.20300
C1403       C  0.60815420  0.44681767  0.88950726    -0.33000
C1404       C  0.62180897  0.46321078  0.91581975     0.01000
C1405       C  0.62015688  0.46095443  0.96049366    -0.24300
C1406       C  0.55175624  0.39304484  0.03343214    -0.28900
C1407       C  0.53573355  0.37893668  0.00709276     0.06700
C1408       C  0.53841820  0.37996569  0.96245131    -0.27600
H1409       H  0.58295940  0.42364730  0.07620988     0.11400
H1410       H  0.61279556  0.45334386  0.04435886     0.12500
H1411       H  0.54760817  0.38578917  0.87857283     0.11600
H1412       H  0.57818428  0.41480240  0.84680030     0.10800
H1413       H  0.60910405  0.44865571  0.85500493     0.16200
H1414       H  0.63056265  0.47362759  0.98081085     0.12100
H1415       H  0.54950931  0.39263266  0.06780319     0.15000
H1416       H  0.52595826  0.36925740  0.94209835     0.14800
C1417       C  0.57432675  0.47087593  0.67003241    -0.18100
C1418       C  0.55827990  0.45526328  0.64651706    -0.20300
C1419       C  0.54393231  0.43689851  0.66649816     0.20400
C1420       C  0.54546757  0.43438130  0.71080104    -0.03200
C1421       C  0.56148919  0.45028178  0.73468991    -0.06300
C1422       C  0.57618557  0.46847349  0.71400604     0.20700
C1423       C  0.56313153  0.44774666  0.77896224     0.18800
C1424       C  0.54874163  0.42938510  0.79895730    -0.17700
C1425       C  0.53306918  0.41349024  0.77512722    -0.20000
C1426       C  0.53137230  0.41577204  0.73098552     0.20300
C1427       C  0.51624961  0.39958999  0.70642445    -0.33000
C1428       C  0.51491805  0.40186534  0.66201372     0.01000
C1429       C  0.52853153  0.42076906  0.64258838    -0.24300
C1430       C  0.59278089  0.48368460  0.73739986    -0.28900
C1431       C  0.59458661  0.48116268  0.78138107     0.06700
C1432       C  0.57947893  0.46336490  0.80215779    -0.27600
H1433       H  0.58543181  0.48475397  0.65369866     0.11400
H1434       H  0.55732627  0.45739371  0.61249316     0.12500
H1435       H  0.54980896  0.42718375  0.83290506     0.11600
H1436       H  0.52238914  0.39932639  0.79116865     0.10800
H1437       H  0.50584648  0.38507802  0.72167874     0.16200
H1438       H  0.52783875  0.42261602  0.60834270     0.12100
H1439       H  0.60444337  0.49737617  0.72135970     0.15000
H1440       H  0.58102333  0.46123306  0.83597997     0.14800
C1441       C  0.77378570  0.57255561  0.39536708    -0.18100
C1442       C  0.79252658  0.57318512  0.40132373    -0.20300
C1443       C  0.79474257  0.55640234  0.38960049     0.20400
C1444       C  0.77803538  0.53906504  0.37044501    -0.03200
C1445       C  0.75910349  0.53840653  0.36454466    -0.06300
C1446       C  0.75686767  0.55511684  0.37762944     0.20700
C1447       C  0.74226786  0.52078697  0.34662758     0.18800
C1448       C  0.74471399  0.50437601  0.33308182    -0.17700
C1449       C  0.76342404  0.50502537  0.33891405    -0.20000
C1450       C  0.78001429  0.52209649  0.35840241     0.20300
C1451       C  0.79827367  0.52216465  0.36737030    -0.33000
C1452       C  0.81472148  0.53897337  0.38822064     0.01000
C1453       C  0.81307530  0.55633852  0.39800285    -0.24300
C1454       C  0.73766998  0.55390100  0.37358244    -0.28900
C1455       C  0.72057421  0.53600953  0.35737770     0.06700
C1456       C  0.72316642  0.51967490  0.34337647    -0.27600
H1457       H  0.77241859  0.58558710  0.40538108     0.11400
H1458       H  0.80518697  0.58667110  0.41587100     0.12500
H1459       H  0.73201282  0.49083471  0.31877854     0.11600
H1460       H  0.76476723  0.49195810  0.32906661     0.10800
H1461       H  0.79950391  0.50885666  0.35898624     0.16200
H1462       H  0.82567685  0.56938854  0.41387437     0.12100
H1463       H  0.73590642  0.56664786  0.38405434     0.15000
H1464       H  0.71025135  0.50600733  0.32993767     0.14800
C1465       C  0.62504562  0.63640541  0.32976100    -0.18100
C1466       C  0.63564278  0.62565460  0.33478458    -0.20300
C1467       C  0.62489527  0.60418039  0.33925577     0.20400
C1468       C  0.60322235  0.59350736  0.33851122    -0.03200
C1469       C  0.59254930  0.60433995  0.33360556    -0.06300
C1470       C  0.60347934  0.62591175  0.32919496     0.20700
C1471       C  0.57090923  0.59352348  0.33312720     0.18800
C1472       C  0.56009155  0.57209218  0.33743116    -0.17700
C1473       C  0.57062251  0.56140071  0.34218195    -0.20000
C1474       C  0.59214218  0.57197037  0.34280148     0.20300
C1475       C  0.60267500  0.56127349  0.34797773    -0.33000
C1476       C  0.62428712  0.57163308  0.34937724     0.01000
C1477       C  0.63533931  0.59317915  0.34474452    -0.24300
C1478       C  0.59263181  0.63651739  0.32411746    -0.28900
C1479       C  0.57098482  0.62574111  0.32336130     0.06700
C1480       C  0.56036221  0.60423234  0.32815166    -0.27600
H1481       H  0.63373725  0.65295416  0.32636840     0.11400
H1482       H  0.65226871  0.63415939  0.33522528     0.12500
H1483       H  0.54346030  0.56358071  0.33708527     0.11600
H1484       H  0.56191904  0.54484301  0.34548284     0.10800
H1485       H  0.59385228  0.54472170  0.35142454     0.16200
H1486       H  0.65196353  0.60136616  0.34573650     0.12100
H1487       H  0.60101498  0.65305865  0.32036897     0.15000
H1488       H  0.54372620  0.59565092  0.32776139     0.14800
C1489       C  0.58531320  0.42625900  0.55497297    -0.18100
C1490       C  0.60215308  0.44317841  0.53595211    -0.20300
C1491       C  0.60500346  0.44392958  0.49142129     0.20400
C1492       C  0.59130938  0.42699665  0.46608957    -0.03200
C1493       C  0.57405435  0.41011242  0.48516432    -0.06300
C1494       C  0.57087812  0.40992185  0.52973488     0.20700
C1495       C  0.55926488  0.39414614  0.45924111     0.18800
C1496       C  0.56262037  0.39445134  0.41500348    -0.17700
C1497       C  0.57992353  0.41093723  0.39624760    -0.20000
C1498       C  0.59402554  0.42755212  0.42130306     0.20300
C1499       C  0.60982819  0.44532630  0.40198477    -0.33000
C1500       C  0.62232106  0.46293272  0.42656299     0.01000
C1501       C  0.62034669  0.46184738  0.47146674    -0.24300
C1502       C  0.55263733  0.39417598  0.54777462    -0.28900
C1503       C  0.53713700  0.37922015  0.52156126     0.06700
C1504       C  0.54077858  0.37893982  0.47754085    -0.27600
H1505       H  0.58310805  0.42636877  0.58923320     0.11400
H1506       H  0.61256902  0.45597821  0.55592570     0.12500
H1507       H  0.55151483  0.38225687  0.39469060     0.11600
H1508       H  0.58178829  0.41111127  0.36182849     0.10800
H1509       H  0.61101344  0.44614737  0.36736573     0.16200
H1510       H  0.62987434  0.47538844  0.49058185     0.12100
H1511       H  0.54968345  0.39466960  0.58161777     0.15000
H1512       H  0.52878034  0.36751836  0.45729185     0.14800
C1513       C  0.70056065  0.54498931  0.61945090    -0.18100
C1514       C  0.69878655  0.54533759  0.57502552    -0.20300
C1515       C  0.68668911  0.55257942  0.55656030     0.20400
C1516       C  0.67698024  0.56039762  0.58294889    -0.03200
C1517       C  0.67916502  0.56048351  0.62779160    -0.06300
C1518       C  0.69050483  0.55216004  0.64604061     0.20700
C1519       C  0.66911149  0.56785858  0.65438815     0.18800
C1520       C  0.65751033  0.57567307  0.63575128    -0.17700
C1521       C  0.65498393  0.57518065  0.59128084    -0.20000
C1522       C  0.66427169  0.56714453  0.56468375     0.20300
C1523       C  0.66040729  0.56487607  0.52044176    -0.33000
C1524       C  0.66967728  0.55660475  0.49441351     0.01000
C1525       C  0.68333642  0.55120154  0.51234865    -0.24300
C1526       C  0.69065015  0.55007549  0.69048910    -0.28900
C1527       C  0.67978566  0.55636342  0.71702713     0.06700
C1528       C  0.66983094  0.56611430  0.69903988    -0.27600
H1529       H  0.70939520  0.53865168  0.63304310     0.11400
H1530       H  0.70632896  0.53930139  0.55514665     0.12500
H1531       H  0.64976534  0.58147509  0.65566030     0.11600
H1532       H  0.64536920  0.58063179  0.57777314     0.10800
H1533       H  0.64991513  0.56909918  0.50636094     0.16200
H1534       H  0.69030936  0.54465933  0.49213490     0.12100
H1535       H  0.69845067  0.54268774  0.70442108     0.15000
H1536       H  0.66131441  0.57083319  0.71951258     0.14800
C1537       C  0.70572902  0.55268075  0.12188891    -0.18100
C1538       C  0.70496135  0.55423187  0.07736057    -0.20300
C1539       C  0.68946462  0.55664798  0.05824448     0.20400
C1540       C  0.67516035  0.55846036  0.08440911    -0.03200
C1541       C  0.67616675  0.55728212  0.12930608    -0.06300
C1542       C  0.69116930  0.55378467  0.14805847     0.20700
C1543       C  0.66159090  0.55870317  0.15528840     0.18800
C1544       C  0.64640385  0.56162576  0.13633451    -0.17700
C1545       C  0.64516810  0.56238929  0.09184676    -0.20000
C1546       C  0.65924895  0.56048201  0.06568209     0.20300
C1547       C  0.65706139  0.55952859  0.02116117    -0.33000
C1548       C  0.67064405  0.55676447  0.99500272     0.01000
C1549       C  0.68732110  0.55617909  0.01351882    -0.24300
C1550       C  0.69082397  0.55069508  0.19242097    -0.28900
C1551       C  0.67607335  0.55172188  0.21809720     0.06700
C1552       C  0.66192899  0.55633080  0.19962983    -0.27600
H1553       H  0.71745600  0.55019593  0.13579861     0.11400
H1554       H  0.71610379  0.55288461  0.05779633     0.12500
H1555       H  0.63512075  0.56273922  0.15588048     0.11600
H1556       H  0.63292728  0.56403411  0.07787192     0.10800
H1557       H  0.64427580  0.56012363  0.00682408     0.16200
H1558       H  0.69771310  0.55388473  0.99334686     0.12100
H1559       H  0.70174361  0.54716716  0.20692961     0.15000
H1560       H  0.65043230  0.55688276  0.21958909     0.14800
C1561       C  0.54277256  0.43349456  0.29087711    -0.18100
C1562       C  0.52762329  0.41823092  0.26498751    -0.20300
C1563       C  0.52967169  0.41926984  0.22026588     0.20400
C1564       C  0.54693207  0.43610362  0.20134309    -0.03200
C1565       C  0.56235647  0.45138347  0.22751425    -0.06300
C1566       C  0.56032487  0.44998960  0.27252009     0.20700
C1567       C  0.58011340  0.46765202  0.20867754     0.18800
C1568       C  0.58197797  0.46890277  0.16391284    -0.17700
C1569       C  0.56659778  0.45389614  0.13797903    -0.20000
C1570       C  0.54912857  0.43730892  0.15636274     0.20300
C1571       C  0.53420820  0.42153763  0.13067960    -0.33000
C1572       C  0.51743338  0.40430009  0.14947249     0.01000
C1573       C  0.51512666  0.40343527  0.19423965    -0.24300
C1574       C  0.57621272  0.46465304  0.29838344    -0.28900
C1575       C  0.59435549  0.48034978  0.27983559     0.06700
C1576       C  0.59600545  0.48195387  0.23493640    -0.27600
H1577       H  0.54096692  0.43215855  0.32532372     0.11400
H1578       H  0.51443081  0.40542957  0.28000455     0.12500
H1579       H  0.59550421  0.48132449  0.14894788     0.11600
H1580       H  0.56857237  0.45503651  0.10355116     0.10800
H1581       H  0.53623459  0.42212919  0.09625038     0.16200
H1582       H  0.50221589  0.39017075  0.20886590     0.12100
H1583       H  0.57492904  0.46319328  0.33291582     0.15000
H1584       H  0.60991824  0.49407497  0.22042319     0.14800
C1585       C  0.57249670  0.79632290  0.80053561    -0.18100
C1586       C  0.57215861  0.77768608  0.80642106    -0.20300
C1587       C  0.55354924  0.75888780  0.80515152     0.20400
C1588       C  0.53510025  0.75895186  0.79819038    -0.03200
C1589       C  0.53543631  0.77775694  0.79241610    -0.06300
C1590       C  0.55422796  0.79657234  0.79333959     0.20700
C1591       C  0.51693671  0.77767520  0.78549899     0.18800
C1592       C  0.49830441  0.75895555  0.78449278    -0.17700
C1593       C  0.49797735  0.74040067  0.79011093    -0.20000
C1594       C  0.51627117  0.74022268  0.79693327     0.20300
C1595       C  0.51597328  0.72161494  0.80271059    -0.33000
C1596       C  0.53423595  0.72126611  0.80990981     0.01000
C1597       C  0.55302294  0.74006368  0.81089280    -0.24300
C1598       C  0.55438686  0.81520326  0.78668367    -0.28900
C1599       C  0.53592564  0.81520065  0.77931947     0.06700
C1600       C  0.51730283  0.79625522  0.77926341    -0.27600
H1601       H  0.58708426  0.81055625  0.80148847     0.11400
H1602       H  0.58649328  0.77798197  0.81185998     0.12500
H1603       H  0.48395542  0.75865436  0.77919060     0.11600
H1604       H  0.48338541  0.72616583  0.78911039     0.10800
H1605       H  0.50139269  0.70735391  0.80184536     0.16200
H1606       H  0.56720958  0.74008911  0.81660244     0.12100
H1607       H  0.56882748  0.82960794  0.78691935     0.15000
H1608       H  0.50291205  0.79583520  0.77366550     0.14800
C1609       C  0.57364094  0.77880517  0.31046020    -0.18100
C1610       C  0.57381995  0.79731454  0.30383334    -0.20300
C1611       C  0.55589982  0.79724260  0.29120445     0.20400
C1612       C  0.53772014  0.77825676  0.28457331    -0.03200
C1613       C  0.53755020  0.75960321  0.29116277    -0.06300
C1614       C  0.55554671  0.75984081  0.30452937     0.20700
C1615       C  0.51925181  0.74071957  0.28496808     0.18800
C1616       C  0.50144499  0.74056021  0.27142436    -0.17700
C1617       C  0.50160933  0.75897276  0.26494353    -0.20000
C1618       C  0.51958359  0.77785902  0.27189115     0.20300
C1619       C  0.51958577  0.79631013  0.26680705    -0.33000
C1620       C  0.53747767  0.81538532  0.27395172     0.01000
C1621       C  0.55571940  0.81573326  0.28557219    -0.24300
C1622       C  0.55499435  0.74113876  0.31235858    -0.28900
C1623       C  0.53658455  0.72223646  0.30735027     0.06700
C1624       C  0.51890586  0.72227974  0.29305142    -0.27600
H1625       H  0.58763408  0.77933327  0.32060948     0.11400
H1626       H  0.58794902  0.81170111  0.30899159     0.12500
H1627       H  0.48730290  0.72617356  0.26631591     0.11600
H1628       H  0.48759085  0.75843450  0.25493204     0.10800
H1629       H  0.50551124  0.79576296  0.25715531     0.16200
H1630       H  0.56962225  0.83031186  0.29092542     0.12100
H1631       H  0.56872759  0.74132534  0.32326074     0.15000
H1632       H  0.50469052  0.70788093  0.28853481     0.14800
C1633       C  0.55450123  0.84909916  0.48667730    -0.18100
C1634       C  0.55285188  0.84639652  0.53108725    -0.20300
C1635       C  0.55560801  0.86248046  0.55812196     0.20400
C1636       C  0.56080188  0.88171889  0.54031490    -0.03200
C1637       C  0.56197055  0.88429074  0.49549327    -0.06300
C1638       C  0.55858237  0.86781262  0.46855061     0.20700
C1639       C  0.56552069  0.90300555  0.47764674     0.18800
C1640       C  0.56909352  0.91935953  0.50468002    -0.17700
C1641       C  0.56844970  0.91698042  0.54911664    -0.20000
C1642       C  0.56390531  0.89811380  0.56718643     0.20300
C1643       C  0.56151515  0.89507574  0.61151899    -0.33000
C1644       C  0.55517520  0.87564501  0.62913275     0.01000
C1645       C  0.55248946  0.85946444  0.60244235    -0.24300
C1646       C  0.55818260  0.86996841  0.42404226    -0.28900
C1647       C  0.56017970  0.88801955  0.40642606     0.06700
C1648       C  0.56438343  0.90466699  0.43320465    -0.27600
H1649       H  0.55189380  0.83631596  0.46643759     0.11400
H1650       H  0.54902968  0.83159622  0.54424655     0.12500
H1651       H  0.57195873  0.93385084  0.49145473     0.11600
H1652       H  0.57087832  0.92970826  0.56934334     0.10800
H1653       H  0.56333106  0.90748088  0.63213120     0.16200
H1654       H  0.54762160  0.84448887  0.61613706     0.12100
H1655       H  0.55473762  0.85706148  0.40332801     0.15000
H1656       H  0.56600310  0.91861733  0.41947987     0.14800
C1657       C  0.54032365  0.84540893  0.98623369    -0.18100
C1658       C  0.53956635  0.84304150  0.03066879    -0.20300
C1659       C  0.54701817  0.86023193  0.05762889     0.20400
C1660       C  0.55552772  0.88004392  0.03969883    -0.03200
C1661       C  0.55589795  0.88239950  0.99485472    -0.06300
C1662       C  0.54828220  0.86497483  0.96806475     0.20700
C1663       C  0.56332863  0.90209117  0.97690075     0.18800
C1664       C  0.57102826  0.91929886  0.00388764    -0.17700
C1665       C  0.57105207  0.91700476  0.04833184    -0.20000
C1666       C  0.56312723  0.89743812  0.06657666     0.20300
C1667       C  0.56202014  0.89487414  0.11119376    -0.33000
C1668       C  0.55279986  0.87510345  0.12916405     0.01000
C1669       C  0.54555459  0.85789165  0.10218725    -0.24300
C1670       C  0.54814543  0.86735132  0.92364839    -0.28900
C1671       C  0.55470694  0.88676200  0.90583225     0.06700
C1672       C  0.56236555  0.90410736  0.93241890    -0.27600
H1673       H  0.53433030  0.83188656  0.96607640     0.11400
H1674       H  0.53299169  0.82773895  0.04396636     0.12500
H1675       H  0.57685355  0.93451852  0.99063972     0.11600
H1676       H  0.57690283  0.93051120  0.06849505     0.10800
H1677       H  0.56730958  0.90815646  0.13189176     0.16200
H1678       H  0.53840118  0.84262329  0.11594320     0.12100
H1679       H  0.54190209  0.85395691  0.90299763     0.15000
H1680       H  0.56729649  0.91904852  0.91847072     0.14800
C1681       C  0.74027890  0.24528929  0.71943743    -0.18100
C1682       C  0.75904064  0.26344049  0.71453089    -0.20300
C1683       C  0.77728557  0.26288617  0.71062776     0.20400
C1684       C  0.77670773  0.24390221  0.71207655    -0.03200
C1685       C  0.75771979  0.22553105  0.71715484    -0.06300
C1686       C  0.73946218  0.22628992  0.72068713     0.20700
C1687       C  0.75699242  0.20645710  0.71856394     0.18800
C1688       C  0.77533193  0.20598967  0.71497167    -0.17700
C1689       C  0.79416969  0.22421842  0.70974683    -0.20000
C1690       C  0.79503405  0.24326948  0.70806951     0.20300
C1691       C  0.81378438  0.26164714  0.70173962    -0.33000
C1692       C  0.81436367  0.28061738  0.69927914     0.01000
C1693       C  0.79601767  0.28101247  0.70454039    -0.24300
C1694       C  0.72066764  0.20808568  0.72567234    -0.28900
C1695       C  0.71967825  0.18894285  0.72758233     0.06700
C1696       C  0.73797067  0.18826157  0.72376058    -0.27600
H1697       H  0.72638505  0.24611360  0.72221359     0.11400
H1698       H  0.75926083  0.27792360  0.71348102     0.12500
H1699       H  0.77510548  0.19150735  0.71607071     0.11600
H1700       H  0.80805783  0.22339924  0.70679433     0.10800
H1701       H  0.82779620  0.26111793  0.69787642     0.16200
H1702       H  0.79617429  0.29546175  0.70301080     0.12100
H1703       H  0.70677555  0.20891753  0.72854767     0.15000
H1704       H  0.73745246  0.17363954  0.72521201     0.14800
C1705       C  0.62463333  0.99168720  0.72692594    -0.18100
C1706       C  0.63479597  0.01315953  0.72202994    -0.20300
C1707       C  0.62450170  0.02408386  0.72974574     0.20400
C1708       C  0.60364132  0.01309375  0.74184761    -0.03200
C1709       C  0.59339729  0.99145568  0.74672283    -0.06300
C1710       C  0.60391963  0.98061591  0.73959673     0.20700
C1711       C  0.57261200  0.98072004  0.75909750     0.18800
C1712       C  0.56216380  0.99146924  0.76622414    -0.17700
C1713       C  0.57224202  0.01276110  0.76141394    -0.20000
C1714       C  0.59296747  0.02371269  0.74941874     0.20300
C1715       C  0.60311927  0.04511518  0.74514083    -0.33000
C1716       C  0.62398804  0.05643001  0.73358322     0.01000
C1717       C  0.63460532  0.04572400  0.72579956    -0.24300
C1718       C  0.59353462  0.95901566  0.74552598    -0.28900
C1719       C  0.57268697  0.94821527  0.75811319     0.06700
C1720       C  0.56251823  0.95941218  0.76450567    -0.27600
H1721       H  0.63303431  0.98375288  0.72101789     0.11400
H1722       H  0.65077832  0.02124192  0.71245786     0.12500
H1723       H  0.54616517  0.98339711  0.77572181     0.11600
H1724       H  0.56382311  0.02068607  0.76728197     0.10800
H1725       H  0.59467265  0.05300279  0.75121684     0.16200
H1726       H  0.65061452  0.05416659  0.71643893     0.12100
H1727       H  0.60159905  0.95068774  0.74028906     0.15000
H1728       H  0.54656939  0.95155246  0.77439236     0.14800
C1729       C  0.77854031  0.21009427  0.20637694    -0.18100
C1730       C  0.79679457  0.22886778  0.20104484    -0.20300
C1731       C  0.79663092  0.24742335  0.20111605     0.20400
C1732       C  0.77788660  0.24704818  0.20684627    -0.03200
C1733       C  0.75947487  0.22811639  0.21205625    -0.06300
C1734       C  0.75976624  0.20951664  0.21178236     0.20700
C1735       C  0.74077898  0.22783365  0.21742043     0.18800
C1736       C  0.74058391  0.24635473  0.21798085    -0.17700
C1737       C  0.75879204  0.26507385  0.21289051    -0.20000
C1738       C  0.77748933  0.26557353  0.20710574     0.20300
C1739       C  0.79573608  0.28428082  0.20115294    -0.33000
C1740       C  0.81450704  0.28485204  0.19473531     0.01000
C1741       C  0.81481911  0.26630901  0.19515477    -0.24300
C1742       C  0.74130969  0.19072952  0.21699967    -0.28900
C1743       C  0.72257107  0.19035893  0.22222548     0.06700
C1744       C  0.72255916  0.20906323  0.22225506    -0.27600
H1745       H  0.77910475  0.19601089  0.20613464     0.11400
H1746       H  0.81105327  0.22886408  0.19672650     0.12500
H1747       H  0.72632165  0.24636139  0.22224383     0.11600
H1748       H  0.75823179  0.27916165  0.21325099     0.10800
H1749       H  0.79523256  0.29840491  0.20107185     0.16200
H1750       H  0.82915890  0.26651706  0.19031032     0.12100
H1751       H  0.74154982  0.17647061  0.21708989     0.15000
H1752       H  0.70832092  0.20911991  0.22658171     0.14800
C1753       C  0.62954797  0.99292722  0.26910571    -0.18100
C1754       C  0.64016017  0.01442267  0.26464050    -0.20300
C1755       C  0.62963038  0.02482699  0.25423206     0.20400
C1756       C  0.60814756  0.01329678  0.24836148    -0.03200
C1757       C  0.59746975  0.99164684  0.25271527    -0.06300
C1758       C  0.60816486  0.98132881  0.26314993     0.20700
C1759       C  0.57602673  0.98036053  0.24672977     0.18800
C1760       C  0.56541144  0.99061400  0.23642732    -0.17700
C1761       C  0.57592188  0.01193058  0.23217496    -0.20000
C1762       C  0.59723564  0.02337200  0.23814189     0.20300
C1763       C  0.60770664  0.04473543  0.23399382    -0.33000
C1764       C  0.62913677  0.05659879  0.23963214     0.01000
C1765       C  0.64007004  0.04646158  0.24960822    -0.24300
C1766       C  0.59722073  0.95969702  0.26773793    -0.28900
C1767       C  0.57569630  0.94838614  0.26223034     0.06700
C1768       C  0.56541004  0.95900711  0.25141752    -0.27600
H1769       H  0.63809095  0.98537208  0.27724114     0.11400
H1770       H  0.65662703  0.02291475  0.26939260     0.12500
H1771       H  0.54893334  0.98213684  0.23176022     0.11600
H1772       H  0.56734793  0.01948661  0.22426066     0.10800
H1773       H  0.59898482  0.05212144  0.22589793     0.16200
H1774       H  0.65655246  0.05534147  0.25399321     0.12100
H1775       H  0.60535280  0.95177112  0.27632946     0.15000
H1776       H  0.54891639  0.95062768  0.24683132     0.14800
C1777       C  0.70014696  0.16079940  0.96866596    -0.18100
C1778       C  0.69874183  0.15874378  0.01317498    -0.20300
C1779       C  0.68704112  0.13931091  0.03195327     0.20400
C1780       C  0.67721789  0.12168073  0.00569791    -0.03200
C1781       C  0.67897460  0.12372510  0.96076266    -0.06300
C1782       C  0.69007890  0.14342768  0.94225632     0.20700
C1783       C  0.66884951  0.10615675  0.93437793     0.18800
C1784       C  0.65751065  0.08668987  0.95325943    -0.17700
C1785       C  0.65547069  0.08469568  0.99780076    -0.20000
C1786       C  0.66493778  0.10211436  0.02424934     0.20300
C1787       C  0.66175996  0.10043964  0.06872566    -0.33000
C1788       C  0.67124259  0.11801127  0.09476332     0.01000
C1789       C  0.68431687  0.13728176  0.07640733    -0.24300
C1790       C  0.69006933  0.14550901  0.89775090    -0.28900
C1791       C  0.67920647  0.12817395  0.87138235     0.06700
C1792       C  0.66932619  0.10847772  0.88970219    -0.27600
H1793       H  0.70877301  0.17601932  0.95488636     0.11400
H1794       H  0.70635389  0.17241554  0.03289929     0.12500
H1795       H  0.64968718  0.07304405  0.93352162     0.11600
H1796       H  0.64614452  0.06955330  0.01152759     0.10800
H1797       H  0.65169362  0.08558441  0.08306777     0.16200
H1798       H  0.69143223  0.15084090  0.09659924     0.12100
H1799       H  0.69778795  0.16072197  0.88365975     0.15000
H1800       H  0.66076295  0.09510567  0.86947587     0.14800
C1801       C  0.64324114  0.09391879  0.45013567    -0.18100
C1802       C  0.64039026  0.09208455  0.49436404    -0.20300
C1803       C  0.65518548  0.10683730  0.52177531     0.20400
C1804       C  0.67309369  0.12361628  0.50462386    -0.03200
C1805       C  0.67578540  0.12568987  0.45989199    -0.06300
C1806       C  0.66080438  0.11067329  0.43265932     0.20700
C1807       C  0.69314432  0.14300279  0.44240643     0.18800
C1808       C  0.70798399  0.15770446  0.46995673    -0.17700
C1809       C  0.70553207  0.15540058  0.51443566    -0.20000
C1810       C  0.68805126  0.13851151  0.53209894     0.20300
C1811       C  0.68495513  0.13647133  0.57661915    -0.33000
C1812       C  0.66682297  0.12004448  0.59364690     0.01000
C1813       C  0.65213061  0.10527010  0.56601919    -0.24300
C1814       C  0.66328205  0.11298008  0.38835084    -0.28900
C1815       C  0.68002084  0.13050217  0.37082271     0.06700
C1816       C  0.69496643  0.14551122  0.39775480    -0.27600
H1817       H  0.63155372  0.08238657  0.42955290     0.11400
H1818       H  0.62655278  0.07915562  0.50714619     0.12500
H1819       H  0.72141990  0.17105342  0.45710663     0.11600
H1820       H  0.71714278  0.16700687  0.53501444     0.10800
H1821       H  0.69618279  0.14807098  0.59784557     0.16200
H1822       H  0.63814814  0.09258587  0.57904177     0.12100
H1823       H  0.65153338  0.10172331  0.36736194     0.15000
H1824       H  0.70773335  0.15917370  0.38394850     0.14800
C1825       C  0.49907293  0.25758504  0.58142213    -0.18100
C1826       C  0.49920000  0.23926384  0.57525045    -0.20300
C1827       C  0.48171220  0.22172134  0.55964783     0.20400
C1828       C  0.46374579  0.22250483  0.55111514    -0.03200
C1829       C  0.46363779  0.24108132  0.55725228    -0.06300
C1830       C  0.48146444  0.25871770  0.57205903     0.20700
C1831       C  0.44581067  0.24206306  0.54815545     0.18800
C1832       C  0.42817664  0.22432484  0.53348701    -0.17700
C1833       C  0.42827590  0.20591474  0.52743377    -0.20000
C1834       C  0.44601672  0.20484608  0.53587794     0.20300
C1835       C  0.44649331  0.18660466  0.52862989    -0.33000
C1836       C  0.46462387  0.18595019  0.53565933     0.01000
C1837       C  0.48204842  0.20355556  0.55173043    -0.24300
C1838       C  0.48148048  0.27723735  0.57706098    -0.28900
C1839       C  0.46387560  0.27855802  0.56781871     0.06700
C1840       C  0.44599525  0.26075742  0.55367130    -0.27600
H1841       H  0.51284929  0.27095427  0.59312339     0.11400
H1842       H  0.51307793  0.23888477  0.58224050     0.12500
H1843       H  0.41431575  0.22471698  0.52640410     0.11600
H1844       H  0.41450189  0.19254119  0.51575375     0.10800
H1845       H  0.43298617  0.17314896  0.51627242     0.16200
H1846       H  0.49600641  0.20317266  0.55782165     0.12100
H1847       H  0.49528428  0.29066005  0.58853165     0.15000
H1848       H  0.43229910  0.26147694  0.54664287     0.14800
C1849       C  0.59183526  0.12878817  0.43164319    -0.18100
C1850       C  0.57642165  0.12858896  0.45704871    -0.20300
C1851       C  0.55729210  0.12333571  0.43925689     0.20400
C1852       C  0.55355083  0.11788753  0.39558049    -0.03200
C1853       C  0.56902435  0.11780784  0.37007364    -0.06300
C1854       C  0.58833536  0.12355096  0.38807297     0.20700
C1855       C  0.56532673  0.11248757  0.32632790     0.18800
C1856       C  0.54614548  0.10708016  0.30865884    -0.17700
C1857       C  0.53092459  0.10741449  0.33375862    -0.20000
C1858       C  0.53453431  0.11300869  0.37709969     0.20300
C1859       C  0.51966120  0.11427623  0.40198128    -0.33000
C1860       C  0.52333869  0.11982305  0.44538887     0.01000
C1861       C  0.54202875  0.12393038  0.46403157    -0.24300
C1862       C  0.60397007  0.12449279  0.36196180    -0.28900
C1863       C  0.60059693  0.11970556  0.31798326     0.06700
C1864       C  0.58104679  0.11327560  0.30070359    -0.27600
H1865       H  0.60656791  0.13322253  0.44599951     0.11400
H1866       H  0.57957410  0.13283841  0.49049645     0.12500
H1867       H  0.54303169  0.10294249  0.27515700     0.11600
H1868       H  0.51638694  0.10351704  0.31911392     0.10800
H1869       H  0.50526925  0.11108405  0.38758427     0.16200
H1870       H  0.54502721  0.12847391  0.49739196     0.12100
H1871       H  0.61893755  0.12942243  0.37573130     0.15000
H1872       H  0.57830934  0.10975208  0.26686947     0.14800
C1873       C  0.58079847  0.17525773  0.70875845    -0.18100
C1874       C  0.56379968  0.17496198  0.69005099    -0.20300
C1875       C  0.56127270  0.17354810  0.64545265     0.20400
C1876       C  0.57668884  0.17378748  0.61929311    -0.03200
C1877       C  0.59356301  0.17357824  0.63817663    -0.06300
C1878       C  0.59535481  0.17383515  0.68316982     0.20700
C1879       C  0.60765592  0.17136125  0.61213585     0.18800
C1880       C  0.60570524  0.17102687  0.56746614    -0.17700
C1881       C  0.58926876  0.17173702  0.54871407    -0.20000
C1882       C  0.57436155  0.17243503  0.57438794     0.20300
C1883       C  0.55628542  0.16986342  0.55615523    -0.33000
C1884       C  0.53998920  0.16721708  0.58233346     0.01000
C1885       C  0.54285855  0.17004055  0.62676800    -0.24300
C1886       C  0.61058489  0.17086080  0.70175992    -0.28900
C1887       C  0.62328741  0.16660652  0.67592437     0.06700
C1888       C  0.62239091  0.16781769  0.63122568    -0.27600
H1889       H  0.58197475  0.17549528  0.74333959     0.11400
H1890       H  0.55220235  0.17496310  0.71055359     0.12500
H1891       H  0.61644155  0.16940964  0.54707173     0.11600
H1892       H  0.58764207  0.17065693  0.51420461     0.10800
H1893       H  0.55395355  0.16738788  0.52191550     0.16200
H1894       H  0.53022287  0.16793441  0.64691101     0.12100
H1895       H  0.61106069  0.16964493  0.73627315     0.15000
H1896       H  0.63218731  0.16452818  0.61133083     0.14800
C1897       C  0.42798059  0.22325119  0.07628866    -0.18100
C1898       C  0.42804036  0.20476988  0.07136243    -0.20300
C1899       C  0.44597185  0.20487245  0.05863409     0.20400
C1900       C  0.46404977  0.22386159  0.05126633    -0.03200
C1901       C  0.46396073  0.24245737  0.05598015    -0.06300
C1902       C  0.44583293  0.24218670  0.06844447     0.20700
C1903       C  0.48205266  0.26132259  0.04810613     0.18800
C1904       C  0.50004498  0.26153451  0.03586637    -0.17700
C1905       C  0.50015136  0.24317566  0.03135201    -0.20000
C1906       C  0.48224902  0.22431743  0.03887172     0.20300
C1907       C  0.48227894  0.20593189  0.03365849    -0.33000
C1908       C  0.46431970  0.18683408  0.03999604     0.01000
C1909       C  0.44616759  0.18640933  0.05271498    -0.24300
C1910       C  0.44597474  0.26085273  0.07303304    -0.28900
C1911       C  0.46408272  0.27973529  0.06550195     0.06700
C1912       C  0.48196640  0.27971883  0.05280490    -0.27600
H1913       H  0.41393381  0.22272435  0.08607610     0.11400
H1914       H  0.41402885  0.19038621  0.07735997     0.12500
H1915       H  0.51405464  0.27591572  0.02978716     0.11600
H1916       H  0.51423753  0.24372403  0.02177538     0.10800
H1917       H  0.49636028  0.20657145  0.02363301     0.16200
H1918       H  0.43226725  0.17180471  0.05784203     0.12100
H1919       H  0.43212954  0.26068397  0.08309566     0.15000
H1920       H  0.49598873  0.29411101  0.04677495     0.14800
C1921       C  0.55053014  0.12753580  0.80298098    -0.18100
C1922       C  0.53515013  0.12739570  0.82828083    -0.20300
C1923       C  0.53350374  0.12223992  0.87181338     0.20400
C1924       C  0.54730917  0.11688308  0.88996406    -0.03200
C1925       C  0.56298252  0.11724962  0.86454954    -0.06300
C1926       C  0.56458271  0.12261736  0.82089246     0.20700
C1927       C  0.57737824  0.11278893  0.88313038     0.18800
C1928       C  0.57551846  0.10732899  0.92649744    -0.17700
C1929       C  0.55982590  0.10672019  0.95155148    -0.20000
C1930       C  0.54582089  0.11173382  0.93372871     0.20300
C1931       C  0.53083611  0.11238578  0.95926754    -0.33000
C1932       C  0.51754407  0.11850497  0.94179742     0.01000
C1933       C  0.51872708  0.12298888  0.89780881    -0.24300
C1934       C  0.58051379  0.12348554  0.79615693    -0.28900
C1935       C  0.59525144  0.11970619  0.81479496     0.06700
C1936       C  0.59362205  0.11434567  0.85822412    -0.27600
H1937       H  0.55163046  0.13178992  0.76959038     0.11400
H1938       H  0.52467244  0.13156543  0.81387347     0.12500
H1939       H  0.58637062  0.10375807  0.94121468     0.11600
H1940       H  0.55889149  0.10272822  0.98506695     0.10800
H1941       H  0.53016940  0.10904746  0.99313106     0.16200
H1942       H  0.50850693  0.12764224  0.88395074     0.12100
H1943       H  0.58200635  0.12799895  0.76282763     0.15000
H1944       H  0.60506912  0.11152251  0.87258387     0.14800
C1945       C  0.60235252  0.16228448  0.06281972    -0.18100
C1946       C  0.58541713  0.16263211  0.04559753    -0.20300
C1947       C  0.57145544  0.16437680  0.07253074     0.20400
C1948       C  0.57504072  0.16671821  0.11703280    -0.03200
C1949       C  0.59240858  0.16689658  0.13427127    -0.06300
C1950       C  0.60575477  0.16400130  0.10716472     0.20700
C1951       C  0.59565594  0.16862570  0.17890887     0.18800
C1952       C  0.58183114  0.17061942  0.20576333    -0.17700
C1953       C  0.56434298  0.16990451  0.18878163    -0.20000
C1954       C  0.56059914  0.16754904  0.14460537     0.20300
C1955       C  0.54209996  0.16470914  0.12780806    -0.33000
C1956       C  0.53818833  0.16162724  0.08375140     0.01000
C1957       C  0.55328480  0.16241171  0.05608998    -0.24300
C1958       C  0.62137798  0.16146895  0.12517931    -0.28900
C1959       C  0.62396713  0.16214174  0.16981331     0.06700
C1960       C  0.61177711  0.16680853  0.19623880    -0.27600
H1961       H  0.61246460  0.16009996  0.04157251     0.11400
H1962       H  0.58279745  0.16071829  0.01137860     0.12500
H1963       H  0.58410058  0.17188529  0.24011273     0.11600
H1964       H  0.55346466  0.17064449  0.21033441     0.10800
H1965       H  0.53034312  0.16389281  0.14909669     0.16200
H1966       H  0.55004589  0.15954324  0.02216148     0.12100
H1967       H  0.63072264  0.15777605  0.10478091     0.15000
H1968       H  0.61349699  0.16696869  0.23071895     0.14800
C1969       C  0.44993521  0.08846973  0.76563212    -0.18100
C1970       C  0.44919357  0.09033953  0.81002460    -0.20300
C1971       C  0.44776187  0.10668324  0.82781865     0.20400
C1972       C  0.44681228  0.12114224  0.80068896    -0.03200
C1973       C  0.44718700  0.11904266  0.75590548    -0.06300
C1974       C  0.44904122  0.10277829  0.73836275     0.20700
C1975       C  0.44623931  0.13349674  0.72874918     0.18800
C1976       C  0.44493798  0.14990545  0.74659789    -0.17700
C1977       C  0.44499727  0.15223069  0.79100940    -0.20000
C1978       C  0.44605807  0.13803519  0.81829049     0.20300
C1979       C  0.44695158  0.14070442  0.86280365    -0.33000
C1980       C  0.44788527  0.12634052  0.88972839     0.01000
C1981       C  0.44790077  0.10918281  0.87225200    -0.24300
C1982       C  0.45051997  0.10144902  0.69391467    -0.28900
C1983       C  0.44988313  0.11597455  0.66671396     0.06700
C1984       C  0.44725870  0.13167580  0.68427011    -0.27600
H1985       H  0.45137388  0.07590086  0.75261702     0.11400
H1986       H  0.45006531  0.07920742  0.83043664     0.12500
H1987       H  0.44425921  0.16114829  0.72620661     0.11600
H1988       H  0.44436917  0.16525236  0.80403749     0.10800
H1989       H  0.44723089  0.15407459  0.87656581     0.16200
H1990       H  0.44915613  0.09842501  0.89324967     0.12100
H1991       H  0.45249429  0.08926880  0.68045639     0.15000
H1992       H  0.44702062  0.14303774  0.66344045     0.14800
C1993       C  0.43978934  0.08401125  0.30755843    -0.18100
C1994       C  0.44019467  0.08243055  0.26301579    -0.20300
C1995       C  0.44027928  0.09755158  0.23671716     0.20400
C1996       C  0.43898125  0.11393361  0.25535852    -0.03200
C1997       C  0.43897043  0.11574511  0.30031965    -0.06300
C1998       C  0.43971997  0.10087322  0.32649161     0.20700
C1999       C  0.43943158  0.13305320  0.31899490     0.18800
C2000       C  0.43839918  0.14758000  0.29268416    -0.17700
C2001       C  0.43794358  0.14553933  0.24812048    -0.20000
C2002       C  0.43881960  0.12910047  0.22914610     0.20300
C2003       C  0.44063536  0.12814140  0.18459670    -0.33000
C2004       C  0.44339369  0.11265929  0.16618657     0.01000
C2005       C  0.44264209  0.09712043  0.19229285    -0.24300
C2006       C  0.44165941  0.10378907  0.37093787    -0.28900
C2007       C  0.44374997  0.12177489  0.38918004     0.06700
C2008       C  0.44211348  0.13610282  0.36337371    -0.27600
H2009       H  0.44030314  0.07244207  0.32720364     0.11400
H2010       H  0.44099803  0.06966324  0.24915663     0.12500
H2011       H  0.43852066  0.16083110  0.30653562     0.11600
H2012       H  0.43768902  0.15724462  0.22847368     0.10800
H2013       H  0.44124803  0.14017120  0.16454670     0.16200
H2014       H  0.44450177  0.08501564  0.17808900     0.12100
H2015       H  0.44319076  0.09289844  0.39099793     0.15000
H2016       H  0.44378584  0.14998549  0.37767720     0.14800
C2017       C  0.24075437  0.73952917  0.97843234    -0.18100
C2018       C  0.25925313  0.75782090  0.98499418    -0.20300
C2019       C  0.26026229  0.77683565  0.98061175     0.20400
C2020       C  0.24240342  0.77745757  0.97010290    -0.03200
C2021       C  0.22364913  0.75891878  0.96350729    -0.06300
C2022       C  0.22291696  0.73991639  0.96744209     0.20700
C2023       C  0.20572813  0.75939675  0.95263049     0.18800
C2024       C  0.20675826  0.77847759  0.94882045    -0.17700
C2025       C  0.22535033  0.79685866  0.95539837    -0.20000
C2026       C  0.24332207  0.79655739  0.96586832     0.20300
C2027       C  0.26219381  0.81494005  0.97187254    -0.33000
C2028       C  0.28018907  0.81441661  0.98173047     0.01000
C2029       C  0.27889981  0.79519314  0.98628568    -0.24300
C2030       C  0.20444683  0.72159444  0.95994826    -0.28900
C2031       C  0.18646232  0.72177621  0.94853967     0.06700
C2032       C  0.18721342  0.74082293  0.94536214    -0.27600
H2033       H  0.24043269  0.72505654  0.98170029     0.11400
H2034       H  0.27283010  0.75709168  0.99321302     0.12500
H2035       H  0.19318791  0.77919961  0.94052837     0.11600
H2036       H  0.22568891  0.81133321  0.95204705     0.10800
H2037       H  0.26289273  0.82958952  0.96849714     0.16200
H2038       H  0.29248067  0.79443339  0.99435247     0.12100
H2039       H  0.20415395  0.70711468  0.96281856     0.15000
H2040       H  0.17352535  0.74122653  0.93653716     0.14800
C2041       C  0.36452806  0.98975785  0.99781475    -0.18100
C2042       C  0.37485752  0.01117496  0.00308542    -0.20300
C2043       C  0.39639371  0.02257593  0.00525223     0.20400
C2044       C  0.40757004  0.01223199  0.00114002    -0.03200
C2045       C  0.39716366  0.99065155  0.99599164    -0.06300
C2046       C  0.37551302  0.97927990  0.99470685     0.20700
C2047       C  0.40847819  0.98045483  0.99273199     0.18800
C2048       C  0.42999017  0.99180851  0.99368419    -0.17700
C2049       C  0.44025633  0.01309918  0.99866908    -0.20000
C2050       C  0.42918023  0.02338666  0.00286039     0.20300
C2051       C  0.43943861  0.04460301  0.00954483    -0.33000
C2052       C  0.42856339  0.05513607  0.01509347     0.01000
C2053       C  0.40695864  0.04401253  0.01220182    -0.24300
C2054       C  0.36531133  0.95768210  0.99076451    -0.28900
C2055       C  0.37656225  0.94736858  0.98831268     0.06700
C2056       C  0.39817223  0.95905193  0.98898007    -0.27600
H2057       H  0.34791114  0.98135735  0.99665257     0.11400
H2058       H  0.36597086  0.01879631  0.00592180     0.12500
H2059       H  0.43888996  0.98419068  0.99098836     0.11600
H2060       H  0.45687928  0.02149978  0.99977593     0.10800
H2061       H  0.45605680  0.05285994  0.01117549     0.16200
H2062       H  0.39838445  0.05191341  0.01610590     0.12100
H2063       H  0.34869117  0.94894648  0.98988745     0.15000
H2064       H  0.40714290  0.95149037  0.98667143     0.14800
C2065       C  0.47098723  0.88828023  0.07981567    -0.18100
C2066       C  0.45565676  0.88843114  0.05497011    -0.20300
C2067       C  0.43815705  0.88690118  0.07441863     0.20400
C2068       C  0.43610236  0.88528159  0.11937366    -0.03200
C2069       C  0.45169474  0.88539302  0.14449388    -0.06300
C2070       C  0.46914551  0.88676292  0.12452337     0.20700
C2071       C  0.44964113  0.88373946  0.18946021     0.18800
C2072       C  0.43192208  0.88173776  0.20883566    -0.17700
C2073       C  0.41635509  0.88138887  0.18388136    -0.20000
C2074       C  0.41830285  0.88315493  0.13917938     0.20300
C2075       C  0.40257203  0.88235500  0.11385301    -0.33000
C2076       C  0.40446257  0.88382320  0.06900411     0.01000
C2077       C  0.42244873  0.88642285  0.04959410    -0.24300
C2078       C  0.48423491  0.88615264  0.14953983    -0.28900
C2079       C  0.48229640  0.88455185  0.19428442     0.06700
C2080       C  0.46511478  0.88362597  0.21413259    -0.27600
H2081       H  0.48426252  0.88926755  0.06402820     0.11400
H2082       H  0.45738204  0.88951965  0.02049307     0.12500
H2083       H  0.43001838  0.88024892  0.24325438     0.11600
H2084       H  0.40273458  0.87964172  0.19955177     0.10800
H2085       H  0.38868782  0.88023675  0.12899759     0.16200
H2086       H  0.42383377  0.88714819  0.01501911     0.12100
H2087       H  0.49739494  0.88665537  0.13420097     0.15000
H2088       H  0.46334829  0.88185751  0.24857152     0.14800
C2089       C  0.44013907  0.83384931  0.93833982    -0.18100
C2090       C  0.42291128  0.83296576  0.95751696    -0.20300
C2091       C  0.40779128  0.83356898  0.93239551     0.20400
C2092       C  0.40944349  0.83381553  0.88735263    -0.03200
C2093       C  0.42664164  0.83427703  0.86795606    -0.06300
C2094       C  0.44242307  0.83506518  0.89365567     0.20700
C2095       C  0.42871836  0.83541373  0.82297859     0.18800
C2096       C  0.41329677  0.83538804  0.79779061    -0.17700
C2097       C  0.39650636  0.83536299  0.81701937    -0.20000
C2098       C  0.39471242  0.83511441  0.86177116     0.20300
C2099       C  0.37938716  0.83772717  0.88136686    -0.33000
C2100       C  0.37845676  0.83883319  0.92620598     0.01000
C2101       C  0.39199776  0.83558693  0.95151233    -0.24300
C2102       C  0.46074810  0.83844025  0.87440493    -0.28900
C2103       C  0.46326622  0.84053366  0.82973353     0.06700
C2104       C  0.44680890  0.83802655  0.80415336    -0.27600
H2105       H  0.45200950  0.83427162  0.95854884     0.11400
H2106       H  0.42188717  0.83275308  0.99213139     0.12500
H2107       H  0.41466438  0.83628842  0.76322151     0.11600
H2108       H  0.38529224  0.83625833  0.79689846     0.10800
H2109       H  0.36904561  0.84030628  0.86174650     0.16200
H2110       H  0.39159487  0.83678495  0.98605765     0.12100
H2111       H  0.47344504  0.84050647  0.89422519     0.15000
H2112       H  0.44882210  0.84004419  0.76977485     0.14800
C2113       C  0.20556210  0.77743916  0.47068574    -0.18100
C2114       C  0.22415407  0.79588561  0.47624281    -0.20300
C2115       C  0.24294134  0.79623519  0.47443056     0.20400
C2116       C  0.24293782  0.77773453  0.46731798    -0.03200
C2117       C  0.22418108  0.75912068  0.46181734    -0.06300
C2118       C  0.20537595  0.75895924  0.46326383     0.20700
C2119       C  0.22428666  0.74070828  0.45461729     0.18800
C2120       C  0.24301837  0.74095778  0.45318243    -0.17700
C2121       C  0.26155147  0.75934980  0.45861563    -0.20000
C2122       C  0.26167003  0.77780762  0.46558304     0.20300
C2123       C  0.28021684  0.79629764  0.47094029    -0.33000
C2124       C  0.28047164  0.81489743  0.47812974     0.01000
C2125       C  0.26169651  0.81470550  0.47972088    -0.24300
C2126       C  0.18678396  0.74038682  0.45689970    -0.28900
C2127       C  0.18678614  0.72195516  0.44924764     0.06700
C2128       C  0.20570041  0.72235815  0.44857215    -0.27600
H2129       H  0.19131032  0.77764875  0.47203382     0.11400
H2130       H  0.22383310  0.80991442  0.48182522     0.12500
H2131       H  0.24334266  0.72692178  0.44769338     0.11600
H2132       H  0.27580588  0.75913999  0.45728309     0.10800
H2133       H  0.29449778  0.79612691  0.46969305     0.16200
H2134       H  0.26164175  0.82886211  0.48550587     0.12100
H2135       H  0.17238147  0.74032366  0.45759871     0.15000
H2136       H  0.20606889  0.70836761  0.44269701     0.14800
C2137       C  0.43923065  0.01022923  0.52743500    -0.18100
C2138       C  0.42803962  0.98895321  0.52237902    -0.20300
C2139       C  0.40702031  0.97899597  0.51286833     0.20400
C2140       C  0.39703844  0.99046630  0.50892236    -0.03200
C2141       C  0.40836416  0.01202099  0.51421348    -0.06300
C2142       C  0.42956743  0.02188574  0.52321736     0.20700
C2143       C  0.39855258  0.02368302  0.51022270     0.18800
C2144       C  0.37743433  0.01359031  0.50110833    -0.17700
C2145       C  0.36620761  0.99219076  0.49564482    -0.20000
C2146       C  0.37586022  0.98044143  0.49930196     0.20300
C2147       C  0.36489324  0.95895707  0.49289931    -0.33000
C2148       C  0.37498557  0.94752368  0.49585793     0.01000
C2149       C  0.39597747  0.95777219  0.50660088    -0.24300
C2150       C  0.44083775  0.04324642  0.52779052    -0.28900
C2151       C  0.43131566  0.05512183  0.52387774     0.06700
C2152       C  0.41007117  0.04518176  0.51527005    -0.27600
H2153       H  0.45548594  0.01758350  0.53447735     0.11400
H2154       H  0.43588072  0.98028964  0.52554295     0.12500
H2155       H  0.36960835  0.02226440  0.49796052     0.11600
H2156       H  0.34998403  0.98484454  0.48832906     0.10800
H2157       H  0.34873814  0.95127106  0.48473930     0.16200
H2158       H  0.40396849  0.94923847  0.50957417     0.12100
H2159       H  0.45710978  0.05061147  0.53474508     0.15000
H2160       H  0.40254281  0.05414881  0.51219370     0.14800
C2161       C  0.45106156  0.88229173  0.54874935    -0.18100
C2162       C  0.46617054  0.88143723  0.57301912    -0.20300
C2163       C  0.46554541  0.88181758  0.61787373     0.20400
C2164       C  0.44931898  0.88264281  0.63855598    -0.03200
C2165       C  0.43397950  0.88330939  0.61408793    -0.06300
C2166       C  0.43503629  0.88341740  0.56897599     0.20700
C2167       C  0.41752984  0.88371915  0.63475146     0.18800
C2168       C  0.41647630  0.88329601  0.67960739    -0.17700
C2169       C  0.43180623  0.88284422  0.70388879    -0.20000
C2170       C  0.44837361  0.88272795  0.68366677     0.20300
C2171       C  0.46393655  0.88254866  0.70774002    -0.33000
C2172       C  0.48019994  0.88186140  0.68731862     0.01000
C2173       C  0.48080062  0.88128317  0.64241423    -0.24300
C2174       C  0.41983380  0.88424281  0.54487099    -0.28900
C2175       C  0.40329739  0.88440451  0.56523505     0.06700
C2176       C  0.40224279  0.88417414  0.61016371    -0.27600
H2177       H  0.45189900  0.88205365  0.51414486     0.11400
H2178       H  0.47841835  0.88060277  0.55669940     0.12500
H2179       H  0.40383205  0.88338916  0.69591247     0.11600
H2180       H  0.43072206  0.88261446  0.73848988     0.10800
H2181       H  0.46308179  0.88234018  0.74239926     0.16200
H2182       H  0.49315950  0.88042470  0.62660688     0.12100
H2183       H  0.42037016  0.88380212  0.51021884     0.15000
H2184       H  0.38933392  0.88400191  0.62592277     0.14800
C2185       C  0.29931589  0.84814349  0.76713774    -0.18100
C2186       C  0.29752520  0.84598093  0.72266616    -0.20300
C2187       C  0.31068408  0.86230170  0.69593794     0.20400
C2188       C  0.32548998  0.88118032  0.71414050    -0.03200
C2189       C  0.32762643  0.88319780  0.75899815    -0.06300
C2190       C  0.31451267  0.86654669  0.78556884     0.20700
C2191       C  0.34335912  0.90157985  0.77716742     0.18800
C2192       C  0.35615697  0.91809901  0.75045528    -0.17700
C2193       C  0.35374234  0.91625669  0.70599151    -0.20000
C2194       C  0.33868180  0.89776813  0.68751939     0.20300
C2195       C  0.33714310  0.89525829  0.64293943    -0.33000
C2196       C  0.32319050  0.87614734  0.62486338     0.01000
C2197       C  0.30982953  0.85982941  0.65139516    -0.24300
C2198       C  0.31735910  0.86829494  0.82999483    -0.28900
C2199       C  0.33366856  0.88612017  0.84797502     0.06700
C2200       C  0.34644893  0.90282170  0.82157123    -0.27600
H2201       H  0.28915733  0.83522640  0.78711701     0.11400
H2202       H  0.28603305  0.83143351  0.70916306     0.12500
H2203       H  0.36823392  0.93234226  0.76392171     0.11600
H2204       H  0.36400411  0.92911755  0.68600183     0.10800
H2205       H  0.34768445  0.90773378  0.62239005     0.16200
H2206       H  0.29912687  0.84508348  0.63732106     0.12100
H2207       H  0.30765506  0.85534382  0.85040358     0.15000
H2208       H  0.35899439  0.91660503  0.83558734     0.14800
C2209       C  0.29638915  0.84558728  0.22232525    -0.18100
C2210       C  0.29783043  0.84787706  0.26683087    -0.20300
C2211       C  0.31209879  0.86671588  0.28533719     0.20400
C2212       C  0.32436277  0.88371346  0.25876299    -0.03200
C2213       C  0.32253575  0.88153468  0.21385360    -0.06300
C2214       C  0.30896356  0.86219955  0.19561358     0.20700
C2215       C  0.33505909  0.89842766  0.18725602     0.18800
C2216       C  0.34888932  0.91743325  0.20578957    -0.17700
C2217       C  0.35104833  0.91945673  0.25028197    -0.20000
C2218       C  0.33916454  0.90258611  0.27697666     0.20300
C2219       C  0.34244498  0.90396907  0.32135079    -0.33000
C2220       C  0.33070282  0.88689704  0.34772098     0.01000
C2221       C  0.31505032  0.86858065  0.32978640    -0.24300
C2222       C  0.30897396  0.85956967  0.15116805    -0.28900
C2223       C  0.32200613  0.87614245  0.12474071     0.06700
C2224       C  0.33435208  0.89570814  0.14273225    -0.27600
H2225       H  0.28577912  0.83069871  0.20881241     0.11400
H2226       H  0.28827093  0.83469937  0.28679338     0.12500
H2227       H  0.35857452  0.93056382  0.18582298     0.11600
H2228       H  0.36233779  0.93409052  0.26377287     0.10800
H2229       H  0.35444417  0.91812446  0.33532890     0.16200
H2230       H  0.30611691  0.85536802  0.35018548     0.12100
H2231       H  0.29938839  0.84450168  0.13720129     0.15000
H2232       H  0.34455021  0.90845260  0.12233860     0.14800
C2233       C  0.39894046  0.83755375  0.31875325    -0.18100
C2234       C  0.41572213  0.83710639  0.30085328    -0.20300
C2235       C  0.43096326  0.83746000  0.32720229     0.20400
C2236       C  0.42879851  0.83726328  0.37208944    -0.03200
C2237       C  0.41159307  0.83725192  0.39018042    -0.06300
C2238       C  0.39696010  0.83807189  0.36332552     0.20700
C2239       C  0.40974554  0.83776548  0.43505597     0.18800
C2240       C  0.42477706  0.83766181  0.46139950    -0.17700
C2241       C  0.44204642  0.83813645  0.44345825    -0.20000
C2242       C  0.44445011  0.83843295  0.39884431     0.20300
C2243       C  0.46275084  0.84122804  0.38052993    -0.33000
C2244       C  0.46531765  0.84233007  0.33581904     0.01000
C2245       C  0.44896246  0.83944349  0.30943286    -0.24300
C2246       C  0.38138390  0.84072979  0.38138532    -0.28900
C2247       C  0.38002595  0.84222199  0.42596363     0.06700
C2248       C  0.39369064  0.83978399  0.45266336    -0.27600
H2249       H  0.38782233  0.83810003  0.29769464     0.11400
H2250       H  0.41720248  0.83732619  0.26631986     0.12500
H2251       H  0.42360533  0.83806740  0.49592427     0.11600
H2252       H  0.45381883  0.83889615  0.46449531     0.10800
H2253       H  0.47536325  0.84357850  0.40096728     0.16200
H2254       H  0.45099933  0.84068802  0.27497473     0.12100
H2255       H  0.37096466  0.84271565  0.36073969     0.15000
H2256       H  0.39296567  0.84131948  0.48704977     0.14800
loop_ 
_geom_bond_atom_site_label_1 
_geom_bond_atom_site_label_2 
_geom_bond_distance 
_geom_bond_site_symmetry_2 
_ccdc_geom_bond_type 
Fe1          O17   2.060       .  S
Fe1           O7   2.117       .  S
Fe1          O14   2.111       .  S
Fe1           O6   2.059       .  S
Fe1          O12   1.941       .  S
Fe2           O5   2.055       .  S
Fe2           O9   2.086       .  S
Fe2          O13   2.039       .  S
Fe2          O18   2.097       .  S
Fe2          O12   1.930       .  S
Fe3          O21   2.098       .  S
Fe3           O8   2.041       .  S
Fe3          O15   2.042       .  S
Fe3           O4   2.082       .  S
Fe3          O12   1.939       .  S
O4           C11   1.269       .  A
O5           C19   1.267       .  A
O6           C11   1.266       .  A
O7           C10   1.282       .  A
O8           C20   1.268       .  A
O9           C22   1.274       .  A
C10          O15   1.271       .  A
C10        C2124   1.489       .  S
C11        C2196   1.470       .  S
O13          C16   1.268       .  A
O14          C16   1.277       .  A
C16        C2148   1.489       .  S
O17          C22   1.270       .  A
O18          C20   1.277       .  A
C19          O21   1.273       .  A
C19        C2247   1.480       .  S
C20        C2175   1.471       .  S
C22        C2220   1.472       .  S
Fe23         O39   2.057       .  S
Fe23         O29   2.116       .  S
Fe23         O36   2.112       .  S
Fe23         O28   2.060   1_556  S
Fe23         O34   1.946       .  S
Fe24         O27   2.054       .  S
Fe24         O31   2.081       .  S
Fe24         O35   2.046       .  S
Fe24         O40   2.096   1_556  S
Fe24         O34   1.937       .  S
Fe25         O43   2.106   1_554  S
Fe25         O30   2.047       .  S
Fe25         O37   2.049   1_554  S
Fe25         O26   2.088       .  S
Fe25         O34   1.944   1_554  S
O26          C33   1.273       .  A
O27          C41   1.266       .  A
O28          C33   1.269       .  A
O29          C32   1.280       .  A
O30          C42   1.268       .  A
O31          C44   1.273       .  A
C32          O37   1.271       .  A
C32        C2028   1.493       .  S
C33        C2223   1.473       .  S
O35          C38   1.269       .  A
O36          C38   1.278       .  A
C38        C2055   1.493       .  S
O39          C44   1.270       .  A
O40          C42   1.276       .  A
C41          O43   1.275       .  A
C41        C2100   1.482       .  S
C42        C2076   1.478       .  S
C44        C2199   1.470       .  S
Fe45         O61   2.061       .  S
Fe45         O51   2.119       .  S
Fe45         O58   2.108       .  S
Fe45         O50   2.058   1_554  S
Fe45         O56   1.943       .  S
Fe46         O49   2.054       .  S
Fe46         O53   2.085       .  S
Fe46         O57   2.040       .  S
Fe46         O62   2.101       .  S
Fe46         O56   1.928       .  S
Fe47         O65   2.081   1_556  S
Fe47         O52   2.048       .  S
Fe47         O59   2.036   1_556  S
Fe47         O48   2.074       .  S
Fe47         O56   1.942   1_556  S
O48          C55   1.266       .  A
O49          C63   1.265       .  A
O50          C55   1.265       .  A
O51          C54   1.282       .  A
O52          C64   1.271       .  A
O53          C66   1.275       .  A
C54          O59   1.270       .  A
C54        C1908   1.486       .  S
C55        C1980   1.463       .  S
O57          C60   1.267       .  A
O58          C60   1.277       .  A
C60        C2052   1.491       .  S
O61          C66   1.271       .  A
O62          C64   1.279   1_554  A
C63          O65   1.269       .  A
C63        C1956   1.469       .  S
C64        C1932   1.482       .  S
C66        C2004   1.477       .  S
Fe67         O83   2.064       .  S
Fe67         O73   2.105       .  S
Fe67         O80   2.098       .  S
Fe67         O72   2.060       .  S
Fe67         O78   1.948       .  S
Fe68         O71   2.054       .  S
Fe68         O75   2.071       .  S
Fe68         O79   2.052       .  S
Fe68         O84   2.092       .  S
Fe68         O78   1.941       .  S
Fe69         O87   2.084       .  S
Fe69         O74   2.068       .  S
Fe69         O81   2.059       .  S
Fe69         O70   2.082       .  S
Fe69         O78   1.945       .  S
O70          C77   1.272       .  A
O71          C85   1.267       .  A
O72          C77   1.267       .  A
O73          C76   1.277       .  A
O74          C86   1.271       .  A
O75          C88   1.270       .  A
C76          O81   1.271       .  A
C76        C1836   1.490       .  S
C77        C2007   1.468       .  S
O79          C82   1.272       .  A
O80          C82   1.277       .  A
C82        C2151   1.487       .  S
O83          C88   1.269       .  A
O84          C86   1.273       .  A
C85          O87   1.272       .  A
C85        C1884   1.469       .  S
C86        C1860   1.480       .  S
C88        C1983   1.475       .  S
Fe89        O105   2.057       .  S
Fe89         O95   2.118       .  S
Fe89        O102   2.120       .  S
Fe89         O94   2.056       .  S
Fe89        O100   1.942       .  S
Fe90         O93   2.050       .  S
Fe90         O97   2.093       .  S
Fe90        O101   2.041       .  S
Fe90        O106   2.113       .  S
Fe90        O100   1.929       .  S
Fe91        O109   2.085       .  S
Fe91         O96   2.048       .  S
Fe91        O103   2.035       .  S
Fe91         O92   2.082       .  S
Fe91        O100   1.940       .  S
O92          C99   1.269       .  A
O93         C107   1.264       .  A
O94          C99   1.268       .  A
O95          C98   1.281       .  A
O96         C108   1.270       .  A
O97         C110   1.276       .  A
C98         O103   1.268       .  A
C98        C1743   1.487       .  S
C99        C1815   1.463       .  S
O101        C104   1.268       .  A
O102        C104   1.279       .  A
C104       C1764   1.495       .  S
O105        C110   1.270       .  A
O106        C108   1.281       .  A
C107        O109   1.271       .  A
C107       C1959   1.472       .  S
C108       C1863   1.488       .  S
C110       C1788   1.471       .  S
Fe111       O127   2.065       .  S
Fe111       O117   2.103       .  S
Fe111       O124   2.112       .  S
Fe111       O116   2.071       .  S
Fe111       O122   1.947       .  S
Fe112       O115   2.053       .  S
Fe112       O119   2.072       .  S
Fe112       O123   2.056       .  S
Fe112       O128   2.090       .  S
Fe112       O122   1.934       .  S
Fe113       O131   2.086       .  S
Fe113       O118   2.059       .  S
Fe113       O125   2.050       .  S
Fe113       O114   2.072       .  S
Fe113       O122   1.943       .  S
O114        C121   1.271       .  A
O115        C129   1.266       .  A
O116        C121   1.271       .  A
O117        C120   1.277       .  A
O118        C130   1.270       .  A
O119        C132   1.272       .  A
C120        O125   1.271       .  A
C120       C1695   1.488       .  S
C121       C1791   1.475       .  S
O123        C126   1.271       .  A
O124        C126   1.278       .  A
C126       C1716   1.496       .  S
O127        C132   1.270       .  A
O128        C130   1.275       .  A
C129        O131   1.270       .  A
C129       C1887   1.473       .  S
C130       C1935   1.472       .  S
C132       C1812   1.475       .  S
Fe133       O149   2.059       .  S
Fe133       O139   2.117       .  S
Fe133       O146   2.114       .  S
Fe133       O138   2.067       .  S
Fe133       O144   1.946       .  S
Fe134       O137   2.060       .  S
Fe134       O141   2.081       .  S
Fe134       O145   2.049       .  S
Fe134       O150   2.098       .  S
Fe134       O144   1.935       .  S
Fe135       O153   2.093       .  S
Fe135       O140   2.044       .  S
Fe135       O147   2.045       .  S
Fe135       O136   2.079       .  S
Fe135       O144   1.940       .  S
O136        C143   1.271       .  A
O137        C151   1.267       .  A
O138        C143   1.270       .  A
O139        C142   1.281       .  A
O140        C152   1.268       .  A
O141        C154   1.274       .  A
C142        O147   1.271       .  A
C142       C1620   1.489       .  S
C143       C1668   1.476       .  S
O145        C148   1.269       .  A
O146        C148   1.277       .  A
C148       C1767   1.494       .  S
O149        C154   1.271       .  A
O150        C152   1.277       .  A
C151        O153   1.273       .  A
C151       C2244   1.480       .  S
C152       C2079   1.472       .  S
C154       C1647   1.470       .  S
Fe155       O171   2.057       .  S
Fe155       O161   2.127       .  S
Fe155       O168   2.128       .  S
Fe155       O160   2.055       .  S
Fe155       O166   1.945       .  S
Fe156       O159   2.057       .  S
Fe156       O163   2.082       .  S
Fe156       O167   2.046       .  S
Fe156       O172   2.094       .  S
Fe156       O166   1.936       .  S
Fe157       O175   2.103       .  S
Fe157       O162   2.043       .  S
Fe157       O169   2.041       .  S
Fe157       O158   2.090       .  S
Fe157       O166   1.942       .  S
O158        C165   1.272       .  A
O159        C173   1.267       .  A
O160        C165   1.267       .  A
O161        C164   1.283       .  A
O162        C174   1.267       .  A
O163        C176   1.272       .  A
C164        O169   1.270       .  A
C164       C1599   1.495       .  S
C165       C1644   1.472       .  S
O167        C170   1.269       .  A
O168        C170   1.281       .  A
C170       C1719   1.500       .  S
O171        C176   1.269       .  A
O172        C174   1.276       .  A
C173        O175   1.274       .  A
C173       C2103   1.481       .  S
C174       C2172   1.472       .  S
C176       C1671   1.467       .  S
Fe177       O193   2.053       .  S
Fe177       O183   2.108       .  S
Fe177       O190   2.110       .  S
Fe177       O182   2.052       .  S
Fe177       O188   1.946       .  S
Fe178       O181   2.051       .  S
Fe178       O185   2.091       .  S
Fe178       O189   2.039       .  S
Fe178       O194   2.104       .  S
Fe178       O188   1.941       .  S
Fe179       O197   2.106       .  S
Fe179       O184   2.051       .  S
Fe179       O191   2.055       .  S
Fe179       O180   2.087       .  S
Fe179       O188   1.945       .  S
O180        C187   1.272       .  A
O181        C195   1.266       .  A
O182        C187   1.267       .  A
O183        C186   1.279       .  A
O184        C196   1.268       .  A
O185        C198   1.274       .  A
C186        O191   1.272       .  A
C186       C1455   1.489       .  S
C187       C1551   1.467       .  S
O189        C192   1.267       .  A
O190        C192   1.277       .  A
C192       C1476   1.490       .  S
O193        C198   1.269       .  A
O194        C196   1.277       .  A
C195        O197   1.277       .  A
C195       C1500   1.483       .  S
C196       C1575   1.482       .  S
C198       C1524   1.468       .  S
Fe199       O215   2.068       .  S
Fe199       O205   2.113       .  S
Fe199       O212   2.115       .  S
Fe199       O204   2.065       .  S
Fe199       O210   1.946       .  S
Fe200       O203   2.048       .  S
Fe200       O207   2.070       .  S
Fe200       O211   2.039       .  S
Fe200       O216   2.092       .  S
Fe200       O210   1.934       .  S
Fe201       O219   2.092       .  S
Fe201       O206   2.060       .  S
Fe201       O213   2.053       .  S
Fe201       O202   2.075       .  S
Fe201       O210   1.942       .  S
O202        C209   1.271       .  A
O203        C217   1.265       .  A
O204        C209   1.268       .  A
O205        C208   1.281       .  A
O206        C218   1.270       .  A
O207        C220   1.270       .  A
C208        O213   1.272       .  A
C208       C1356   1.493       .  S
C209       C1527   1.473       .  S
O211        C214   1.269       .  A
O212        C214   1.280       .  A
C214       C1380   1.490       .  S
O215        C220   1.269       .  A
O216        C218   1.274       .  A
C217        O219   1.272       .  A
C217       C1404   1.474       .  S
C218       C1431   1.476       .  S
C220       C1548   1.473       .  S
Fe221       O237   2.057       .  S
Fe221       O227   2.103       .  S
Fe221       O234   2.095       .  S
Fe221       O226   2.058       .  S
Fe221       O232   1.941       .  S
Fe222       O225   2.051       .  S
Fe222       O229   2.089   1_554  S
Fe222       O233   2.035       .  S
Fe222       O238   2.107       .  S
Fe222       O232   1.930       .  S
Fe223       O241   2.091       .  S
Fe223       O228   2.051       .  S
Fe223       O235   2.045       .  S
Fe223       O224   2.083       .  S
Fe223       O232   1.934       .  S
O224        C231   1.270       .  A
O225        C239   1.265       .  A
O226        C231   1.268       .  A
O227        C230   1.277       .  A
O228        C240   1.270       .  A
O229        C242   1.275       .  A
C230        O235   1.271       .  A
C230       C1911   1.483       .  S
C231       C1335   1.467       .  S
O233        C236   1.267       .  A
O234        C236   1.274       .  A
C236       C1284   1.478       .  S
O237        C242   1.270   1_554  A
O238        C240   1.278       .  A
C239        O241   1.273       .  A
C239       C1407   1.473       .  S
C240       C1572   1.480       .  S
C242       C1308   1.472       .  S
Fe243       O259   2.064       .  S
Fe243       O249   2.117       .  S
Fe243       O256   2.120       .  S
Fe243       O248   2.063       .  S
Fe243       O254   1.951       .  S
Fe244       O247   2.058       .  S
Fe244       O251   2.079       .  S
Fe244       O255   2.049       .  S
Fe244       O260   2.088       .  S
Fe244       O254   1.937       .  S
Fe245       O263   2.095       .  S
Fe245       O250   2.059       .  S
Fe245       O257   2.055       .  S
Fe245       O246   2.079       .  S
Fe245       O254   1.951       .  S
O246        C253   1.271       .  A
O247        C261   1.267       .  A
O248        C253   1.269       .  A
O249        C252   1.281       .  A
O250        C262   1.270       .  A
O251        C264   1.273       .  A
C252        O257   1.272       .  A
C252       C1839   1.495       .  S
C253       C1311   1.471       .  S
O255        C258   1.269       .  A
O256        C258   1.278       .  A
C258       C1263   1.498       .  S
O259        C264   1.271       .  A
O260        C262   1.275       .  A
C261        O263   1.273       .  A
C261       C1503   1.477       .  S
C262       C1428   1.482       .  S
C264       C1332   1.476       .  S
Fe265       O281   2.056       .  S
Fe265       O271   2.110       .  S
Fe265       O278   2.108       .  S
Fe265       O270   2.058       .  S
Fe265       O276   1.942       .  S
Fe266       O269   2.053       .  S
Fe266       O273   2.080       .  S
Fe266       O277   2.042       .  S
Fe266       O282   2.096       .  S
Fe266       O276   1.933       .  S
Fe267       O285   2.098       .  S
Fe267       O272   2.052       .  S
Fe267       O279   2.049       .  S
Fe267       O268   2.088       .  S
Fe267       O276   1.938       .  S
O268        C275   1.272       .  A
O269        C283   1.265       .  A
O270        C275   1.267       .  A
O271        C274   1.279       .  A
O272        C284   1.270       .  A
O273        C286   1.272       .  A
C274        O279   1.272       .  A
C274       C1623   1.489       .  S
C275       C1167   1.472       .  S
O277        C280   1.269       .  A
O278        C280   1.278       .  A
C280       C1479   1.489       .  S
O281        C286   1.268       .  A
O282        C284   1.276       .  A
C283        O285   1.273       .  A
C283       C1239   1.477       .  S
C284       C1215   1.474       .  S
C286       C1191   1.468       .  S
Fe287       O303   2.061       .  S
Fe287       O293   2.109       .  S
Fe287       O300   2.110       .  S
Fe287       O292   2.057       .  S
Fe287       O298   1.943       .  S
Fe288       O291   2.050       .  S
Fe288       O295   2.082       .  S
Fe288       O299   2.040       .  S
Fe288       O304   2.094       .  S
Fe288       O298   1.936       .  S
Fe289       O307   2.090       .  S
Fe289       O294   2.059       .  S
Fe289       O301   2.058       .  S
Fe289       O290   2.081       .  S
Fe289       O298   1.944       .  S
O290        C297   1.270       .  A
O291        C305   1.265       .  A
O292        C297   1.268       .  A
O293        C296   1.280       .  A
O294        C306   1.271       .  A
O295        C308   1.273       .  A
C296        O301   1.274       .  A
C296       C1596   1.493       .  S
C297       C1188   1.469       .  S
O299        C302   1.267       .  A
O300        C302   1.277       .  A
C302       C1383   1.488       .  S
O303        C308   1.270       .  A
O304        C306   1.276       .  A
C305        O307   1.272       .  A
C305       C1140   1.471       .  S
C306       C1116   1.478       .  S
C308       C1164   1.474       .  S
Fe309       O325   2.056       .  S
Fe309       O315   2.108       .  S
Fe309       O322   2.102       .  S
Fe309       O314   2.069       .  S
Fe309       O320   1.946       .  S
Fe310       O313   2.050       .  S
Fe310       O317   2.076       .  S
Fe310       O321   2.033       .  S
Fe310       O326   2.100       .  S
Fe310       O320   1.935       .  S
Fe311       O329   2.093       .  S
Fe311       O316   2.049       .  S
Fe311       O323   2.049       .  S
Fe311       O312   2.076       .  S
Fe311       O320   1.935       .  S
O312        C319   1.270       .  A
O313        C327   1.263       .  A
O314        C319   1.269       .  A
O315        C318   1.279       .  A
O316        C328   1.271       .  A
O317        C330   1.272       .  A
C318        O323   1.273       .  A
C318       C1044   1.489       .  S
C319       C1068   1.475   1_554  S
O321        C324   1.266       .  A
O322        C324   1.275       .  A
C324       C1287   1.483       .  S
O325        C330   1.269       .  A
O326        C328   1.278       .  A
C327        O329   1.271       .  A
C327       C1236   1.478       .  S
C328       C1119   1.477       .  S
C330       C1092   1.461       .  S
Fe331       O347   2.061       .  S
Fe331       O337   2.111       .  S
Fe331       O344   2.127       .  S
Fe331       O336   2.059       .  S
Fe331       O342   1.939       .  S
Fe332       O335   2.046       .  S
Fe332       O339   2.083       .  S
Fe332       O343   2.040       .  S
Fe332       O348   2.098       .  S
Fe332       O342   1.927       .  S
Fe333       O351   2.090       .  S
Fe333       O338   2.047       .  S
Fe333       O345   2.040       .  S
Fe333       O334   2.080       .  S
Fe333       O342   1.936       .  S
O334        C341   1.273       .  A
O335        C349   1.264       .  A
O336        C341   1.271       .  A
O337        C340   1.279       .  A
O338        C350   1.268       .  A
O339        C352   1.272       .  A
C340        O345   1.268       .  A
C340       C1020   1.485       .  S
C341       C1095   1.475       .  S
O343        C346   1.268       .  A
O344        C346   1.280       .  A
C346       C1260   1.496       .  S
O347        C352   1.270       .  A
O348        C350   1.276       .  A
C349        O351   1.273       .  A
C349       C1143   1.471       .  S
C350       C1212   1.478       .  S
C352       C1071   1.470       .  S
Fe353       O369   2.059       .  S
Fe353       O359   2.114       .  S
Fe353       O366   2.114       .  S
Fe353       O358   2.061       .  S
Fe353       O364   1.949       .  S
Fe354       O357   2.056       .  S
Fe354       O361   2.077       .  S
Fe354       O365   2.043       .  S
Fe354       O370   2.096       .  S
Fe354       O364   1.936       .  S
Fe355       O373   2.094       .  S
Fe355       O360   2.056       .  S
Fe355       O367   2.052       .  S
Fe355       O356   2.075       .  S
Fe355       O364   1.944       .  S
O356        C363   1.270       .  A
O357        C371   1.265       .  A
O358        C363   1.268       .  A
O359        C362   1.280       .  A
O360        C372   1.270       .  A
O361        C374   1.273       .  A
C362        O367   1.272       .  A
C362       C1047   1.493       .  S
C363        C999   1.474       .  S
O365        C368   1.268       .  A
O366        C368   1.278       .  A
C368        C900   1.492       .  S
O369        C374   1.269       .  A
O370        C372   1.277       .  A
C371        O373   1.272       .  A
C371        C924   1.481       .  S
C372        C951   1.475       .  S
C374        C972   1.467       .  S
Fe375       O391   2.057       .  S
Fe375       O381   2.093       .  S
Fe375       O388   2.090       .  S
Fe375       O380   2.060       .  S
Fe375       O386   1.947       .  S
Fe376       O379   2.060       .  S
Fe376       O383   2.072       .  S
Fe376       O387   2.049       .  S
Fe376       O392   2.090       .  S
Fe376       O386   1.942       .  S
Fe377       O395   2.081       .  S
Fe377       O382   2.050       .  S
Fe377       O389   2.049       .  S
Fe377       O378   2.077       .  S
Fe377       O386   1.945       .  S
O378        C385   1.269       .  A
O379        C393   1.267       .  A
O380        C385   1.267       .  A
O381        C384   1.276       .  A
O382        C394   1.271       .  A
O383        C396   1.271       .  A
C384        O389   1.271       .  A
C384       C1023   1.482       .  S
C385        C975   1.469       .  S
O387        C390   1.270       .  A
O388        C390   1.273       .  A
C390        C828   1.482       .  S
O391        C396   1.268       .  A
O392        C394   1.275       .  A
C393        O395   1.270       .  A
C393        C855   1.474       .  S
C394        C876   1.472       .  S
C396        C996   1.461       .  S
Fe397       O413   2.058       .  S
Fe397       O403   2.119       .  S
Fe397       O410   2.116       .  S
Fe397       O402   2.062       .  S
Fe397       O408   1.947       .  S
Fe398       O401   2.058       .  S
Fe398       O405   2.084       .  S
Fe398       O409   2.049       .  S
Fe398       O414   2.100       .  S
Fe398       O408   1.939       .  S
Fe399       O417   2.078       .  S
Fe399       O404   2.049       .  S
Fe399       O411   2.040       .  S
Fe399       O400   2.071       .  S
Fe399       O408   1.940       .  S
O400        C407   1.270       .  A
O401        C415   1.268       .  A
O402        C407   1.268       .  A
O403        C406   1.281       .  A
O404        C416   1.269       .  A
O405        C418   1.273       .  A
C406        O411   1.268       .  A
C406       C2127   1.491       .  S
C407        C807   1.473       .  S
O409        C412   1.269       .  A
O410        C412   1.279       .  A
C412        C756   1.493       .  S
O413        C418   1.269       .  A
O414        C416   1.276       .  A
C415        O417   1.270       .  A
C415        C852   1.472       .  S
C416        C948   1.482       .  S
C418        C783   1.473       .  S
Fe419       O435   2.055   1_556  S
Fe419       O425   2.119       .  S
Fe419       O432   2.110       .  S
Fe419       O424   2.062       .  S
Fe419       O430   1.943       .  S
Fe420       O423   2.060       .  S
Fe420       O427   2.077   1_556  S
Fe420       O431   2.042       .  S
Fe420       O436   2.090       .  S
Fe420       O430   1.935       .  S
Fe421       O439   2.093       .  S
Fe421       O426   2.049       .  S
Fe421       O433   2.050       .  S
Fe421       O422   2.081       .  S
Fe421       O430   1.942       .  S
O422        C429   1.269       .  A
O423        C437   1.266       .  A
O424        C429   1.267       .  A
O425        C428   1.282       .  A
O426        C438   1.270       .  A
O427        C440   1.272       .  A
C428        O433   1.272       .  A
C428       C2031   1.492       .  S
C429        C780   1.471       .  S
O431        C434   1.267       .  A
O432        C434   1.277       .  A
C434        C732   1.492       .  S
O435        C440   1.270       .  A
O436        C438   1.277       .  A
C437        O439   1.271       .  A
C437        C927   1.478       .  S
C438        C879   1.474       .  S
C440        C804   1.461       .  S
Fe441       O457   2.060       .  S
Fe441       O447   2.112       .  S
Fe441       O454   2.112       .  S
Fe441       O446   2.064       .  S
Fe441       O452   1.945       .  S
Fe442       O445   2.057       .  S
Fe442       O449   2.074       .  S
Fe442       O453   2.052       .  S
Fe442       O458   2.089       .  S
Fe442       O452   1.938       .  S
Fe443       O461   2.082       .  S
Fe443       O448   2.058       .  S
Fe443       O455   2.051       .  S
Fe443       O444   2.081       .  S
Fe443       O452   1.944       .  S
O444        C451   1.272       .  A
O445        C459   1.265       .  A
O446        C451   1.269       .  A
O447        C450   1.280       .  A
O448        C460   1.272       .  A
O449        C462   1.270       .  A
C450        O455   1.270       .  A
C450       C1452   1.487       .  S
C451        C636   1.479       .  S
O453        C456   1.270       .  A
O454        C456   1.279       .  A
C456        C759   1.494       .  S
O457        C462   1.268       .  A
O458        C460   1.276       .  A
C459        O461   1.270       .  A
C459        C708   1.471       .  S
C460        C687   1.478       .  S
C462        C663   1.470       .  S
Fe463       O479   2.055       .  S
Fe463       O469   2.116       .  S
Fe463       O476   2.110       .  S
Fe463       O468   2.057       .  S
Fe463       O474   1.945       .  S
Fe464       O467   2.058       .  S
Fe464       O471   2.081       .  S
Fe464       O475   2.040       .  S
Fe464       O480   2.092       .  S
Fe464       O474   1.937       .  S
Fe465       O483   2.099       .  S
Fe465       O470   2.050       .  S
Fe465       O477   2.054       .  S
Fe465       O466   2.085       .  S
Fe465       O474   1.946       .  S
O466        C473   1.269       .  A
O467        C481   1.265       .  A
O468        C473   1.265       .  A
O469        C472   1.283       .  A
O470        C482   1.271       .  A
O471        C484   1.272       .  A
C472        O477   1.274       .  A
C472       C1359   1.493       .  S
C473        C660   1.471   1_556  S
O475        C478   1.267       .  A
O476        C478   1.277       .  A
C478        C735   1.492       .  S
O479        C484   1.268       .  A
O480        C482   1.277       .  A
C481        O483   1.272       .  A
C481        C612   1.480       .  S
C482        C588   1.471       .  S
C484        C639   1.465       .  S
Fe485       O501   2.060       .  S
Fe485       O491   2.103       .  S
Fe485       O498   2.100       .  S
Fe485       O490   2.065       .  S
Fe485       O496   1.943       .  S
Fe486       O489   2.062       .  S
Fe486       O493   2.088       .  S
Fe486       O497   2.054       .  S
Fe486       O502   2.094       .  S
Fe486       O496   1.938       .  S
Fe487       O505   2.084       .  S
Fe487       O492   2.046       .  S
Fe487       O499   2.048       .  S
Fe487       O488   2.081       .  S
Fe487       O496   1.945       .  S
O488        C495   1.269       .  A
O489        C503   1.268       .  A
O490        C495   1.268       .  A
O491        C494   1.279       .  A
O492        C504   1.270       .  A
O493        C506   1.275       .  A
C494        O499   1.271       .  A
C494       C1740   1.486       .  S
C495        C543   1.472       .  S
O497        C500   1.269       .  A
O498        C500   1.274       .  A
C500        C903   1.486       .  S
O501        C506   1.270       .  A
O502        C504   1.276       .  A
C503        O505   1.270       .  A
C503        C711   1.478       .  S
C504        C591   1.473       .  S
C506        C567   1.473       .  S
Fe507       O523   2.060       .  S
Fe507       O513   2.102       .  S
Fe507       O520   2.106       .  S
Fe507       O512   2.059       .  S
Fe507       O518   1.943       .  S
Fe508       O511   2.050       .  S
Fe508       O515   2.084       .  S
Fe508       O519   2.042       .  S
Fe508       O524   2.089       .  S
Fe508       O518   1.930       .  S
Fe509       O527   2.110       .  S
Fe509       O514   2.052       .  S
Fe509       O521   2.046       .  S
Fe509       O510   2.094       .  S
Fe509       O518   1.936       .  S
O510        C517   1.275       .  A
O511        C525   1.268       .  A
O512        C517   1.270       .  A
O513        C516   1.277       .  A
O514        C526   1.267       .  A
O515        C528   1.273       .  A
C516        O521   1.269       .  A
C516       C1692   1.487       .  S
C517        C564   1.475       .  S
O519        C522   1.268       .  A
O520        C522   1.276       .  A
C522        C831   1.481       .  S
O523        C528   1.270       .  A
O524        C526   1.274       .  A
C525        O527   1.278       .  A
C525        C615   1.483       .  S
C526        C684   1.473       .  S
C528        C540   1.476       .  S
C529        C530   1.399       .  A
C529        C534   1.403       .  A
C529        H545   1.084       .  S
C530        C531   1.403       .  A
C530        H546   1.083       .  S
C531        C541   1.403       .  A
C531        C532   1.412       .  A
C532        C538   1.412       .  A
C532        C533   1.412       .  A
C533        C535   1.412       .  A
C533        C534   1.412       .  A
C534        C542   1.402   1_556  A
C535        C544   1.405   1_556  A
C535        C536   1.404       .  A
C536        C537   1.400       .  A
C536        H547   1.083       .  S
C537        C538   1.404       .  A
C537        H548   1.084       .  S
C538        C539   1.403       .  A
C539        C540   1.406       .  A
C539        H549   1.085       .  S
C540        C541   1.406       .  A
C541        H550   1.084       .  S
C542        C543   1.404       .  A
C542        H551   1.085       .  S
C543        C544   1.405       .  A
C544        H552   1.084       .  S
C553        C554   1.399       .  A
C553        C558   1.403       .  A
C553        H569   1.084       .  S
C554        C555   1.404       .  A
C554        H570   1.083       .  S
C555        C565   1.403       .  A
C555        C556   1.411       .  A
C556        C562   1.413       .  A
C556        C557   1.412       .  A
C557        C559   1.412       .  A
C557        C558   1.412       .  A
C558        C566   1.404       .  A
C559        C568   1.403       .  A
C559        C560   1.404       .  A
C560        C561   1.399       .  A
C560        H571   1.083       .  S
C561        C562   1.403       .  A
C561        H572   1.084       .  S
C562        C563   1.404       .  A
C563        C564   1.405       .  A
C563        H573   1.085       .  S
C564        C565   1.406       .  A
C565        H574   1.084       .  S
C566        C567   1.405       .  A
C566        H575   1.085       .  S
C567        C568   1.405       .  A
C568        H576   1.084       .  S
C577        C578   1.399       .  A
C577        C582   1.404       .  A
C577        H593   1.084       .  S
C578        C579   1.404       .  A
C578        H594   1.084       .  S
C579        C589   1.402       .  A
C579        C580   1.412       .  A
C580        C586   1.412   1_554  A
C580        C581   1.409       .  A
C581        C583   1.411       .  A
C581        C582   1.412       .  A
C582        C590   1.402       .  A
C583        C592   1.399       .  A
C583        C584   1.403   1_554  A
C584        C585   1.397       .  A
C584        H595   1.084       .  S
C585        C586   1.403       .  A
C585        H596   1.084       .  S
C586        C587   1.399       .  A
C587        C588   1.404       .  A
C587        H597   1.085       .  S
C588        C589   1.405   1_556  A
C589        H598   1.085       .  S
C590        C591   1.406       .  A
C590        H599   1.085       .  S
C591        C592   1.405       .  A
C592        H600   1.085       .  S
C601        C602   1.400       .  A
C601        C606   1.404       .  A
C601        H617   1.084       .  S
C602        C603   1.404       .  A
C602        H618   1.084       .  S
C603        C613   1.405       .  A
C603        C604   1.412       .  A
C604        C610   1.413       .  A
C604        C605   1.415       .  A
C605        C607   1.412       .  A
C605        C606   1.412       .  A
C606        C614   1.405       .  A
C607        C616   1.406       .  A
C607        C608   1.404       .  A
C608        C609   1.401       .  A
C608        H619   1.084       .  S
C609        C610   1.404       .  A
C609        H620   1.084       .  S
C610        C611   1.408       .  A
C611        C612   1.406       .  A
C611        H621   1.084       .  S
C612        C613   1.408       .  A
C613        H622   1.085       .  S
C614        C615   1.408       .  A
C614        H623   1.084       .  S
C615        C616   1.408       .  A
C616        H624   1.084       .  S
C625        C626   1.400       .  A
C625        C630   1.404       .  A
C625        H641   1.083       .  S
C626        C627   1.404       .  A
C626        H642   1.084       .  S
C627        C637   1.405       .  A
C627        C628   1.412       .  A
C628        C634   1.411       .  A
C628        C629   1.411       .  A
C629        C631   1.412       .  A
C629        C630   1.413       .  A
C630        C638   1.405       .  A
C631        C640   1.400       .  A
C631        C632   1.402       .  A
C632        C633   1.397       .  A
C632        H643   1.084       .  S
C633        C634   1.403       .  A
C633        H644   1.083       .  S
C634        C635   1.400       .  A
C635        C636   1.406       .  A
C635        H645   1.084       .  S
C636        C637   1.407       .  A
C637        H646   1.084       .  S
C638        C639   1.403       .  A
C638        H647   1.084       .  S
C639        C640   1.402       .  A
C640        H648   1.085       .  S
C649        C650   1.399       .  A
C649        C654   1.403       .  A
C649        H665   1.083       .  S
C650        C651   1.403       .  A
C650        H666   1.084       .  S
C651        C661   1.402       .  A
C651        C652   1.412       .  A
C652        C658   1.413       .  A
C652        C653   1.411       .  A
C653        C655   1.412       .  A
C653        C654   1.412       .  A
C654        C662   1.402       .  A
C655        C664   1.402       .  A
C655        C656   1.403       .  A
C656        C657   1.399       .  A
C656        H667   1.084       .  S
C657        C658   1.403       .  A
C657        H668   1.083       .  S
C658        C659   1.404       .  A
C659        C660   1.404       .  A
C659        H669   1.084       .  S
C660        C661   1.405       .  A
C661        H670   1.085       .  S
C662        C663   1.404       .  A
C662        H671   1.084       .  S
C663        C664   1.404       .  A
C664        H672   1.085       .  S
C673        C674   1.400       .  A
C673        C678   1.404       .  A
C673        H689   1.084       .  S
C674        C675   1.404       .  A
C674        H690   1.084       .  S
C675        C685   1.404       .  A
C675        C676   1.413       .  A
C676        C682   1.411       .  A
C676        C677   1.411       .  A
C677        C679   1.413       .  A
C677        C678   1.411       .  A
C678        C686   1.402       .  A
C679        C688   1.403       .  A
C679        C680   1.403       .  A
C680        C681   1.398       .  A
C680        H691   1.084       .  S
C681        C682   1.403       .  A
C681        H692   1.084       .  S
C682        C683   1.400       .  A
C683        C684   1.405       .  A
C683        H693   1.085       .  S
C684        C685   1.406       .  A
C685        H694   1.084       .  S
C686        C687   1.408       .  A
C686        H695   1.084       .  S
C687        C688   1.405       .  A
C688        H696   1.084       .  S
C697        C698   1.398       .  A
C697        C702   1.403       .  A
C697        H713   1.084       .  S
C698        C699   1.403       .  A
C698        H714   1.084       .  S
C699        C709   1.400       .  A
C699        C700   1.411       .  A
C700        C706   1.413       .  A
C700        C701   1.412       .  A
C701        C703   1.411       .  A
C701        C702   1.413       .  A
C702        C710   1.404       .  A
C703        C712   1.403       .  A
C703        C704   1.404       .  A
C704        C705   1.399       .  A
C704        H715   1.084       .  S
C705        C706   1.403       .  A
C705        H716   1.083       .  S
C706        C707   1.404       .  A
C707        C708   1.404       .  A
C707        H717   1.084       .  S
C708        C709   1.405       .  A
C709        H718   1.085       .  S
C710        C711   1.405       .  A
C710        H719   1.084       .  S
C711        C712   1.408       .  A
C712        H720   1.085       .  S
C721        C722   1.405   1_655  A
C721        C726   1.406       .  A
C721        H737   1.083       .  S
C722        C723   1.406       .  A
C722        H738   1.083       .  S
C723        C733   1.413       .  A
C723        C724   1.412       .  A
C724        C730   1.410       .  A
C724        C725   1.415   1_455  A
C725        C727   1.409       .  A
C725        C726   1.412       .  A
C726        C734   1.414       .  A
C727        C736   1.397       .  A
C727        C728   1.402       .  A
C728        C729   1.395   1_655  A
C728        H739   1.084       .  S
C729        C730   1.402       .  A
C729        H740   1.084       .  S
C730        C731   1.398       .  A
C731        C732   1.410       .  A
C731        H741   1.084       .  S
C732        C733   1.412       .  A
C733        H742   1.084       .  S
C734        C735   1.411       .  A
C734        H743   1.084       .  S
C735        C736   1.410       .  A
C736        H744   1.084       .  S
C745        C746   1.398   1_655  A
C745        C750   1.403       .  A
C745        H761   1.084       .  S
C746        C747   1.403       .  A
C746        H762   1.084       .  S
C747        C757   1.401       .  A
C747        C748   1.410       .  A
C748        C754   1.412       .  A
C748        C749   1.417   1_455  A
C749        C751   1.412       .  A
C749        C750   1.410       .  A
C750        C758   1.402       .  A
C751        C760   1.412       .  A
C751        C752   1.405       .  A
C752        C753   1.404   1_655  A
C752        H763   1.083       .  S
C753        C754   1.406       .  A
C753        H764   1.083       .  S
C754        C755   1.413       .  A
C755        C756   1.411       .  A
C755        H765   1.084       .  S
C756        C757   1.410       .  A
C757        H766   1.084       .  S
C758        C759   1.410       .  A
C758        H767   1.084       .  S
C759        C760   1.411       .  A
C760        H768   1.084       .  S
C769        C770   1.398       .  A
C769        C774   1.403       .  A
C769        H785   1.084       .  S
C770        C771   1.403       .  A
C770        H786   1.084       .  S
C771        C781   1.402       .  A
C771        C772   1.412       .  A
C772        C778   1.412       .  A
C772        C773   1.411       .  A
C773        C775   1.412       .  A
C773        C774   1.412       .  A
C774        C782   1.402       .  A
C775        C784   1.403       .  A
C775        C776   1.403       .  A
C776        C777   1.399       .  A
C776        H787   1.084       .  S
C777        C778   1.404       .  A
C777        H788   1.084       .  S
C778        C779   1.403       .  A
C779        C780   1.405       .  A
C779        H789   1.085       .  S
C780        C781   1.404       .  A
C781        H790   1.085       .  S
C782        C783   1.405       .  A
C782        H791   1.085       .  S
C783        C784   1.405       .  A
C784        H792   1.084       .  S
C793        C794   1.400       .  A
C793        C798   1.404       .  A
C793        H809   1.084       .  S
C794        C795   1.404       .  A
C794        H810   1.083       .  S
C795        C805   1.403       .  A
C795        C796   1.412       .  A
C796        C802   1.412       .  A
C796        C797   1.409       .  A
C797        C799   1.411       .  A
C797        C798   1.412       .  A
C798        C806   1.404       .  A
C799        C808   1.398       .  A
C799        C800   1.402       .  A
C800        C801   1.396       .  A
C800        H811   1.084       .  S
C801        C802   1.402       .  A
C801        H812   1.084       .  S
C802        C803   1.398       .  A
C803        C804   1.400       .  A
C803        H813   1.085       .  S
C804        C805   1.403       .  A
C805        H814   1.084       .  S
C806        C807   1.406       .  A
C806        H815   1.084       .  S
C807        C808   1.404       .  A
C808        H816   1.085       .  S
C817        C818   1.394   1_655  A
C817        C822   1.402       .  A
C817        H833   1.084       .  S
C818        C819   1.402       .  A
C818        H834   1.084       .  S
C819        C829   1.396       .  A
C819        C820   1.410       .  A
C820        C826   1.412       .  A
C820        C821   1.412   1_455  A
C821        C823   1.412       .  A
C821        C822   1.410       .  A
C822        C830   1.396       .  A
C823        C832   1.410       .  A
C823        C824   1.406       .  A
C824        C825   1.404   1_655  A
C824        H835   1.083       .  S
C825        C826   1.406       .  A
C825        H836   1.083       .  S
C826        C827   1.410       .  A
C827        C828   1.410       .  A
C827        H837   1.084       .  S
C828        C829   1.405       .  A
C829        H838   1.084       .  S
C830        C831   1.405       .  A
C830        H839   1.085       .  S
C831        C832   1.409       .  A
C832        H840   1.084       .  S
C841        C842   1.399       .  A
C841        C846   1.404       .  A
C841        H857   1.084       .  S
C842        C843   1.403       .  A
C842        H858   1.084       .  S
C843        C853   1.404       .  A
C843        C844   1.413       .  A
C844        C850   1.411       .  A
C844        C845   1.411       .  A
C845        C847   1.414       .  A
C845        C846   1.411       .  A
C846        C854   1.401       .  A
C847        C856   1.404       .  A
C847        C848   1.403       .  A
C848        C849   1.398       .  A
C848        H859   1.083       .  S
C849        C850   1.403       .  A
C849        H860   1.084       .  S
C850        C851   1.399       .  A
C851        C852   1.405       .  A
C851        H861   1.085       .  S
C852        C853   1.405       .  A
C853        H862   1.084       .  S
C854        C855   1.407       .  A
C854        H863   1.085       .  S
C855        C856   1.404       .  A
C856        H864   1.084       .  S
C865        C866   1.396       .  A
C865        C870   1.402       .  A
C865        H881   1.084       .  S
C866        C867   1.402       .  A
C866        H882   1.084       .  S
C867        C877   1.399       .  A
C867        C868   1.412       .  A
C868        C874   1.412       .  A
C868        C869   1.410       .  A
C869        C871   1.412       .  A
C869        C870   1.412       .  A
C870        C878   1.399       .  A
C871        C880   1.402       .  A
C871        C872   1.404       .  A
C872        C873   1.399       .  A
C872        H883   1.084       .  S
C873        C874   1.404       .  A
C873        H884   1.084       .  S
C874        C875   1.403       .  A
C875        C876   1.407       .  A
C875        H885   1.084       .  S
C876        C877   1.403       .  A
C877        H886   1.085       .  S
C878        C879   1.405       .  A
C878        H887   1.084       .  S
C879        C880   1.407       .  A
C880        H888   1.085       .  S
C889        C890   1.405   1_655  A
C889        C894   1.406       .  A
C889        H905   1.083       .  S
C890        C891   1.406       .  A
C890        H906   1.083       .  S
C891        C901   1.415       .  A
C891        C892   1.413       .  A
C892        C898   1.409       .  A
C892        C893   1.415   1_455  A
C893        C895   1.412       .  A
C893        C894   1.412       .  A
C894        C902   1.412       .  A
C895        C904   1.400       .  A
C895        C896   1.402       .  A
C896        C897   1.396   1_655  A
C896        H907   1.084       .  S
C897        C898   1.403       .  A
C897        H908   1.084       .  S
C898        C899   1.398       .  A
C899        C900   1.409       .  A
C899        H909   1.084       .  S
C900        C901   1.411       .  A
C901        H910   1.084       .  S
C902        C903   1.411       .  A
C902        H911   1.084       .  S
C903        C904   1.406       .  A
C904        H912   1.085       .  S
C913        C914   1.400       .  A
C913        C918   1.404       .  A
C913        H929   1.083       .  S
C914        C915   1.404       .  A
C914        H930   1.084       .  S
C915        C925   1.405       .  A
C915        C916   1.412       .  A
C916        C922   1.412       .  A
C916        C917   1.414       .  A
C917        C919   1.411   1_554  A
C917        C918   1.413       .  A
C918        C926   1.407       .  A
C919        C928   1.403       .  A
C919        C920   1.404       .  A
C920        C921   1.399       .  A
C920        H931   1.084       .  S
C921        C922   1.404   1_556  A
C921        H932   1.083       .  S
C922        C923   1.405       .  A
C923        C924   1.407       .  A
C923        H933   1.084       .  S
C924        C925   1.408       .  A
C925        H934   1.085       .  S
C926        C927   1.406   1_554  A
C926        H935   1.084       .  S
C927        C928   1.407       .  A
C928        H936   1.085       .  S
C937        C938   1.398       .  A
C937        C942   1.403       .  A
C937        H953   1.084       .  S
C938        C939   1.403       .  A
C938        H954   1.084       .  S
C939        C949   1.401       .  A
C939        C940   1.411       .  A
C940        C946   1.412       .  A
C940        C941   1.412       .  A
C941        C943   1.412       .  A
C941        C942   1.412       .  A
C942        C950   1.401       .  A
C943        C952   1.406       .  A
C943        C944   1.404       .  A
C944        C945   1.401       .  A
C944        H955   1.084       .  S
C945        C946   1.405       .  A
C945        H956   1.083       .  S
C946        C947   1.406       .  A
C947        C948   1.409       .  A
C947        H957   1.084       .  S
C948        C949   1.407       .  A
C949        H958   1.085       .  S
C950        C951   1.404       .  A
C950        H959   1.085       .  S
C951        C952   1.407       .  A
C952        H960   1.084       .  S
C961        C962   1.398       .  A
C961        C966   1.403       .  A
C961        H977   1.084       .  S
C962        C963   1.403       .  A
C962        H978   1.084       .  S
C963        C973   1.401       .  A
C963        C964   1.412       .  A
C964        C970   1.413       .  A
C964        C965   1.410       .  A
C965        C967   1.412       .  A
C965        C966   1.413       .  A
C966        C974   1.401       .  A
C967        C976   1.402       .  A
C967        C968   1.403       .  A
C968        C969   1.399       .  A
C968        H979   1.084       .  S
C969        C970   1.403       .  A
C969        H980   1.084       .  S
C970        C971   1.402       .  A
C971        C972   1.403   1_556  A
C971        H981   1.085   1_556  S
C972        C973   1.403   1_554  A
C973        H982   1.085   1_556  S
C974        C975   1.403       .  A
C974        H983   1.085       .  S
C975        C976   1.404       .  A
C976        H984   1.085       .  S
C985        C986   1.399       .  A
C985        C990   1.404       .  A
C985       H1001   1.083       .  S
C986        C987   1.403       .  A
C986       H1002   1.084       .  S
C987        C997   1.402       .  A
C987        C988   1.412       .  A
C988        C994   1.413       .  A
C988        C989   1.410       .  A
C989        C991   1.411       .  A
C989        C990   1.412       .  A
C990        C998   1.403       .  A
C991       C1000   1.400       .  A
C991        C992   1.403       .  A
C992        C993   1.397       .  A
C992       H1003   1.084       .  S
C993        C994   1.402       .  A
C993       H1004   1.084       .  S
C994        C995   1.400       .  A
C995        C996   1.401       .  A
C995       H1005   1.085       .  S
C996        C997   1.402       .  A
C997       H1006   1.085       .  S
C998        C999   1.406       .  A
C998       H1007   1.084       .  S
C999       C1000   1.406       .  A
C1000      H1008   1.085       .  S
C1009      C1010   1.401       .  A
C1009      C1014   1.404       .  A
C1009      H1025   1.083       .  S
C1010      C1011   1.404       .  A
C1010      H1026   1.083       .  S
C1011      C1021   1.407       .  A
C1011      C1012   1.412       .  A
C1012      C1018   1.410       .  A
C1012      C1013   1.412       .  A
C1013      C1015   1.411       .  A
C1013      C1014   1.411       .  A
C1014      C1022   1.405       .  A
C1015      C1024   1.400       .  A
C1015      C1016   1.402       .  A
C1016      C1017   1.397       .  A
C1016      H1027   1.084       .  S
C1017      C1018   1.403       .  A
C1017      H1028   1.084       .  S
C1018      C1019   1.399       .  A
C1019      C1020   1.409       .  A
C1019      H1029   1.084       .  S
C1020      C1021   1.408       .  A
C1021      H1030   1.084       .  S
C1022      C1023   1.409       .  A
C1022      H1031   1.084       .  S
C1023      C1024   1.407       .  A
C1024      H1032   1.084       .  S
C1033      C1034   1.404       .  A
C1033      C1038   1.406       .  A
C1033      H1049   1.083       .  S
C1034      C1035   1.406       .  A
C1034      H1050   1.083       .  S
C1035      C1045   1.411       .  A
C1035      C1036   1.412       .  A
C1036      C1042   1.410       .  A
C1036      C1037   1.415       .  A
C1037      C1039   1.410       .  A
C1037      C1038   1.412       .  A
C1038      C1046   1.412       .  A
C1039      C1048   1.400       .  A
C1039      C1040   1.403       .  A
C1040      C1041   1.396       .  A
C1040      H1051   1.084       .  S
C1041      C1042   1.402       .  A
C1041      H1052   1.084       .  S
C1042      C1043   1.399       .  A
C1043      C1044   1.407       .  A
C1043      H1053   1.084       .  S
C1044      C1045   1.412       .  A
C1045      H1054   1.084       .  S
C1046      C1047   1.412       .  A
C1046      H1055   1.084       .  S
C1047      C1048   1.409       .  A
C1048      H1056   1.084       .  S
C1057      C1058   1.400       .  A
C1057      C1062   1.404       .  A
C1057      H1073   1.083       .  S
C1058      C1059   1.404       .  A
C1058      H1074   1.084       .  S
C1059      C1069   1.406       .  A
C1059      C1060   1.413       .  A
C1060      C1066   1.411       .  A
C1060      C1061   1.412       .  A
C1061      C1063   1.413       .  A
C1061      C1062   1.412       .  A
C1062      C1070   1.403       .  A
C1063      C1072   1.402       .  A
C1063      C1064   1.403       .  A
C1064      C1065   1.398       .  A
C1064      H1075   1.084       .  S
C1065      C1066   1.403       .  A
C1065      H1076   1.084       .  S
C1066      C1067   1.400       .  A
C1067      C1068   1.406       .  A
C1067      H1077   1.085       .  S
C1068      C1069   1.406       .  A
C1069      H1078   1.084       .  S
C1070      C1071   1.404       .  A
C1070      H1079   1.084       .  S
C1071      C1072   1.404       .  A
C1072      H1080   1.085       .  S
C1081      C1082   1.398       .  A
C1081      C1086   1.403       .  A
C1081      H1097   1.084       .  S
C1082      C1083   1.403       .  A
C1082      H1098   1.083       .  S
C1083      C1093   1.400       .  A
C1083      C1084   1.412       .  A
C1084      C1090   1.413       .  A
C1084      C1085   1.409       .  A
C1085      C1087   1.412       .  A
C1085      C1086   1.411       .  A
C1086      C1094   1.401       .  A
C1087      C1096   1.401       .  A
C1087      C1088   1.403       .  A
C1088      C1089   1.398       .  A
C1088      H1099   1.083       .  S
C1089      C1090   1.402       .  A
C1089      H1100   1.084       .  S
C1090      C1091   1.401       .  A
C1091      C1092   1.401       .  A
C1091      H1101   1.085       .  S
C1092      C1093   1.402       .  A
C1093      H1102   1.085       .  S
C1094      C1095   1.407       .  A
C1094      H1103   1.085       .  S
C1095      C1096   1.405       .  A
C1096      H1104   1.084       .  S
C1105      C1106   1.400       .  A
C1105      C1110   1.404       .  A
C1105      H1121   1.084       .  S
C1106      C1107   1.404   1_554  A
C1106      H1122   1.083       .  S
C1107      C1117   1.404       .  A
C1107      C1108   1.412       .  A
C1108      C1114   1.412       .  A
C1108      C1109   1.412       .  A
C1109      C1111   1.411       .  A
C1109      C1110   1.412   1_556  A
C1110      C1118   1.404       .  A
C1111      C1120   1.401       .  A
C1111      C1112   1.403       .  A
C1112      C1113   1.398       .  A
C1112      H1123   1.083       .  S
C1113      C1114   1.403       .  A
C1113      H1124   1.084       .  S
C1114      C1115   1.402       .  A
C1115      C1116   1.406       .  A
C1115      H1125   1.085       .  S
C1116      C1117   1.406       .  A
C1117      H1126   1.084       .  S
C1118      C1119   1.407       .  A
C1118      H1127   1.085       .  S
C1119      C1120   1.406   1_554  A
C1120      H1128   1.084       .  S
C1129      C1130   1.399       .  A
C1129      C1134   1.403       .  A
C1129      H1145   1.084       .  S
C1130      C1131   1.404       .  A
C1130      H1146   1.084       .  S
C1131      C1141   1.401       .  A
C1131      C1132   1.411       .  A
C1132      C1138   1.413       .  A
C1132      C1133   1.411       .  A
C1133      C1135   1.411       .  A
C1133      C1134   1.413       .  A
C1134      C1142   1.403       .  A
C1135      C1144   1.400       .  A
C1135      C1136   1.403       .  A
C1136      C1137   1.398       .  A
C1136      H1147   1.084       .  S
C1137      C1138   1.403       .  A
C1137      H1148   1.084       .  S
C1138      C1139   1.403       .  A
C1139      C1140   1.403       .  A
C1139      H1149   1.085       .  S
C1140      C1141   1.406       .  A
C1141      H1150   1.085       .  S
C1142      C1143   1.406       .  A
C1142      H1151   1.084       .  S
C1143      C1144   1.405       .  A
C1144      H1152   1.085       .  S
C1153      C1154   1.399       .  A
C1153      C1158   1.403       .  A
C1153      H1169   1.084       .  S
C1154      C1155   1.403       .  A
C1154      H1170   1.083       .  S
C1155      C1165   1.403       .  A
C1155      C1156   1.412       .  A
C1156      C1162   1.412       .  A
C1156      C1157   1.412       .  A
C1157      C1159   1.412       .  A
C1157      C1158   1.412       .  A
C1158      C1166   1.403       .  A
C1159      C1168   1.403       .  A
C1159      C1160   1.403       .  A
C1160      C1161   1.399       .  A
C1160      H1171   1.083       .  S
C1161      C1162   1.404       .  A
C1161      H1172   1.084       .  S
C1162      C1163   1.403       .  A
C1163      C1164   1.405       .  A
C1163      H1173   1.085       .  S
C1164      C1165   1.405       .  A
C1165      H1174   1.084       .  S
C1166      C1167   1.405       .  A
C1166      H1175   1.085       .  S
C1167      C1168   1.404       .  A
C1168      H1176   1.084       .  S
C1177      C1178   1.397       .  A
C1177      C1182   1.403       .  A
C1177      H1193   1.084       .  S
C1178      C1179   1.403       .  A
C1178      H1194   1.084       .  S
C1179      C1189   1.400   1_554  A
C1179      C1180   1.412       .  A
C1180      C1186   1.412       .  A
C1180      C1181   1.410       .  A
C1181      C1183   1.412       .  A
C1181      C1182   1.412       .  A
C1182      C1190   1.400       .  A
C1183      C1192   1.402       .  A
C1183      C1184   1.404       .  A
C1184      C1185   1.399       .  A
C1184      H1195   1.084       .  S
C1185      C1186   1.404       .  A
C1185      H1196   1.083       .  S
C1186      C1187   1.403   1_554  A
C1187      C1188   1.405       .  A
C1187      H1197   1.084       .  S
C1188      C1189   1.403       .  A
C1189      H1198   1.085       .  S
C1190      C1191   1.403       .  A
C1190      H1199   1.085       .  S
C1191      C1192   1.404       .  A
C1192      H1200   1.085       .  S
C1201      C1202   1.399       .  A
C1201      C1206   1.403       .  A
C1201      H1217   1.083       .  S
C1202      C1203   1.403       .  A
C1202      H1218   1.084       .  S
C1203      C1213   1.402       .  A
C1203      C1204   1.412       .  A
C1204      C1210   1.411       .  A
C1204      C1205   1.411       .  A
C1205      C1207   1.412       .  A
C1205      C1206   1.412       .  A
C1206      C1214   1.402       .  A
C1207      C1216   1.402       .  A
C1207      C1208   1.403       .  A
C1208      C1209   1.399       .  A
C1208      H1219   1.084       .  S
C1209      C1210   1.404       .  A
C1209      H1220   1.083       .  S
C1210      C1211   1.402       .  A
C1211      C1212   1.407       .  A
C1211      H1221   1.084       .  S
C1212      C1213   1.406       .  A
C1213      H1222   1.085       .  S
C1214      C1215   1.405       .  A
C1214      H1223   1.084       .  S
C1215      C1216   1.406       .  A
C1216      H1224   1.085       .  S
C1225      C1226   1.399       .  A
C1225      C1230   1.404       .  A
C1225      H1241   1.084       .  S
C1226      C1227   1.404       .  A
C1226      H1242   1.083       .  S
C1227      C1237   1.405       .  A
C1227      C1228   1.413       .  A
C1228      C1234   1.411       .  A
C1228      C1229   1.413       .  A
C1229      C1231   1.413       .  A
C1229      C1230   1.411       .  A
C1230      C1238   1.403       .  A
C1231      C1240   1.405       .  A
C1231      C1232   1.404       .  A
C1232      C1233   1.400       .  A
C1232      H1243   1.084       .  S
C1233      C1234   1.404       .  A
C1233      H1244   1.084       .  S
C1234      C1235   1.403       .  A
C1235      C1236   1.407       .  A
C1235      H1245   1.085       .  S
C1236      C1237   1.406       .  A
C1237      H1246   1.084       .  S
C1238      C1239   1.407       .  A
C1238      H1247   1.085       .  S
C1239      C1240   1.406       .  A
C1240      H1248   1.084       .  S
C1249      C1250   1.408       .  A
C1249      C1254   1.408       .  A
C1249      H1265   1.083       .  S
C1250      C1251   1.407       .  A
C1250      H1266   1.083       .  S
C1251      C1261   1.419       .  A
C1251      C1252   1.413       .  A
C1252      C1258   1.409       .  A
C1252      C1253   1.418       .  A
C1253      C1255   1.410       .  A
C1253      C1254   1.412       .  A
C1254      C1262   1.419       .  A
C1255      C1264   1.398       .  A
C1255      C1256   1.402       .  A
C1256      C1257   1.394       .  A
C1256      H1267   1.084       .  S
C1257      C1258   1.402       .  A
C1257      H1268   1.084       .  S
C1258      C1259   1.397       .  A
C1259      C1260   1.409       .  A
C1259      H1269   1.084       .  S
C1260      C1261   1.413       .  A
C1261      H1270   1.084       .  S
C1262      C1263   1.415       .  A
C1262      H1271   1.083       .  S
C1263      C1264   1.409       .  A
C1264      H1272   1.084       .  S
C1273      C1274   1.393       .  A
C1273      C1278   1.402       .  A
C1273      H1289   1.084       .  S
C1274      C1275   1.401       .  A
C1274      H1290   1.084       .  S
C1275      C1285   1.393       .  A
C1275      C1276   1.410       .  A
C1276      C1282   1.412       .  A
C1276      C1277   1.410       .  A
C1277      C1279   1.413       .  A
C1277      C1278   1.409       .  A
C1278      C1286   1.393       .  A
C1279      C1288   1.410       .  A
C1279      C1280   1.405       .  A
C1280      C1281   1.403       .  A
C1280      H1291   1.083       .  S
C1281      C1282   1.405       .  A
C1281      H1292   1.083       .  S
C1282      C1283   1.408       .  A
C1283      C1284   1.409       .  A
C1283      H1293   1.084       .  S
C1284      C1285   1.405       .  A
C1285      H1294   1.085       .  S
C1286      C1287   1.407       .  A
C1286      H1295   1.084       .  S
C1287      C1288   1.409       .  A
C1288      H1296   1.084       .  S
C1297      C1298   1.399       .  A
C1297      C1302   1.403       .  A
C1297      H1313   1.083       .  S
C1298      C1299   1.403       .  A
C1298      H1314   1.084       .  S
C1299      C1309   1.402       .  A
C1299      C1300   1.412       .  A
C1300      C1306   1.412       .  A
C1300      C1301   1.411       .  A
C1301      C1303   1.412       .  A
C1301      C1302   1.412       .  A
C1302      C1310   1.402       .  A
C1303      C1312   1.402       .  A
C1303      C1304   1.403       .  A
C1304      C1305   1.399       .  A
C1304      H1315   1.084       .  S
C1305      C1306   1.403       .  A
C1305      H1316   1.083       .  S
C1306      C1307   1.403       .  A
C1307      C1308   1.405       .  A
C1307      H1317   1.084       .  S
C1308      C1309   1.404       .  A
C1309      H1318   1.085       .  S
C1310      C1311   1.405       .  A
C1310      H1319   1.085       .  S
C1311      C1312   1.404       .  A
C1312      H1320   1.085       .  S
C1321      C1322   1.398       .  A
C1321      C1326   1.403       .  A
C1321      H1337   1.083       .  S
C1322      C1323   1.403       .  A
C1322      H1338   1.084       .  S
C1323      C1333   1.402       .  A
C1323      C1324   1.412       .  A
C1324      C1330   1.412       .  A
C1324      C1325   1.411       .  A
C1325      C1327   1.413       .  A
C1325      C1326   1.412       .  A
C1326      C1334   1.401       .  A
C1327      C1336   1.403       .  A
C1327      C1328   1.403       .  A
C1328      C1329   1.399       .  A
C1328      H1339   1.084       .  S
C1329      C1330   1.404       .  A
C1329      H1340   1.083       .  S
C1330      C1331   1.404       .  A
C1331      C1332   1.405       .  A
C1331      H1341   1.084       .  S
C1332      C1333   1.406       .  A
C1333      H1342   1.085       .  S
C1334      C1335   1.403       .  A
C1334      H1343   1.085       .  S
C1335      C1336   1.403       .  A
C1336      H1344   1.085       .  S
C1345      C1346   1.398       .  A
C1345      C1350   1.403       .  A
C1345      H1361   1.084       .  S
C1346      C1347   1.404       .  A
C1346      H1362   1.084       .  S
C1347      C1357   1.403       .  A
C1347      C1348   1.410       .  A
C1348      C1354   1.412       .  A
C1348      C1349   1.416       .  A
C1349      C1351   1.411       .  A
C1349      C1350   1.410       .  A
C1350      C1358   1.403       .  A
C1351      C1360   1.410       .  A
C1351      C1352   1.405       .  A
C1352      C1353   1.403       .  A
C1352      H1363   1.083       .  S
C1353      C1354   1.405       .  A
C1353      H1364   1.083       .  S
C1354      C1355   1.410       .  A
C1355      C1356   1.411       .  A
C1355      H1365   1.084       .  S
C1356      C1357   1.410       .  A
C1357      H1366   1.084       .  S
C1358      C1359   1.410       .  A
C1358      H1367   1.084       .  S
C1359      C1360   1.411       .  A
C1360      H1368   1.084       .  S
C1369      C1370   1.405       .  A
C1369      C1374   1.406       .  A
C1369      H1385   1.083       .  S
C1370      C1371   1.406       .  A
C1370      H1386   1.083       .  S
C1371      C1381   1.413       .  A
C1371      C1372   1.412       .  A
C1372      C1378   1.409       .  A
C1372      C1373   1.414       .  A
C1373      C1375   1.410       .  A
C1373      C1374   1.412       .  A
C1374      C1382   1.412       .  A
C1375      C1384   1.397       .  A
C1375      C1376   1.402       .  A
C1376      C1377   1.395       .  A
C1376      H1387   1.084       .  S
C1377      C1378   1.402       .  A
C1377      H1388   1.084       .  S
C1378      C1379   1.397       .  A
C1379      C1380   1.409       .  A
C1379      H1389   1.084       .  S
C1380      C1381   1.411       .  A
C1381      H1390   1.084       .  S
C1382      C1383   1.410       .  A
C1382      H1391   1.084       .  S
C1383      C1384   1.408       .  A
C1384      H1392   1.084       .  S
C1393      C1394   1.397       .  A
C1393      C1398   1.403       .  A
C1393      H1409   1.084       .  S
C1394      C1395   1.403   1_554  A
C1394      H1410   1.083       .  S
C1395      C1405   1.401       .  A
C1395      C1396   1.413       .  A
C1396      C1402   1.411       .  A
C1396      C1397   1.411       .  A
C1397      C1399   1.413       .  A
C1397      C1398   1.411   1_556  A
C1398      C1406   1.399       .  A
C1399      C1408   1.406       .  A
C1399      C1400   1.404       .  A
C1400      C1401   1.400       .  A
C1400      H1411   1.083       .  S
C1401      C1402   1.404       .  A
C1401      H1412   1.084       .  S
C1402      C1403   1.403       .  A
C1403      C1404   1.407       .  A
C1403      H1413   1.085       .  S
C1404      C1405   1.404       .  A
C1405      H1414   1.084       .  S
C1406      C1407   1.405       .  A
C1406      H1415   1.085       .  S
C1407      C1408   1.406   1_554  A
C1408      H1416   1.084       .  S
C1417      C1418   1.398       .  A
C1417      C1422   1.403       .  A
C1417      H1433   1.084       .  S
C1418      C1419   1.403       .  A
C1418      H1434   1.083       .  S
C1419      C1429   1.401       .  A
C1419      C1420   1.410       .  A
C1420      C1426   1.412       .  A
C1420      C1421   1.412       .  A
C1421      C1423   1.411       .  A
C1421      C1422   1.413       .  A
C1422      C1430   1.404       .  A
C1423      C1432   1.403       .  A
C1423      C1424   1.404       .  A
C1424      C1425   1.400       .  A
C1424      H1435   1.083       .  S
C1425      C1426   1.404       .  A
C1425      H1436   1.084       .  S
C1426      C1427   1.406       .  A
C1427      C1428   1.409       .  A
C1427      H1437   1.084       .  S
C1428      C1429   1.407       .  A
C1429      H1438   1.084       .  S
C1430      C1431   1.404       .  A
C1430      H1439   1.085       .  S
C1431      C1432   1.408       .  A
C1432      H1440   1.084       .  S
C1441      C1442   1.402       .  A
C1441      C1446   1.405       .  A
C1441      H1457   1.083       .  S
C1442      C1443   1.405       .  A
C1442      H1458   1.083       .  S
C1443      C1453   1.410       .  A
C1443      C1444   1.412       .  A
C1444      C1450   1.410       .  A
C1444      C1445   1.415       .  A
C1445      C1447   1.411       .  A
C1445      C1446   1.412       .  A
C1446      C1454   1.409       .  A
C1447      C1456   1.404       .  A
C1447      C1448   1.404       .  A
C1448      C1449   1.399       .  A
C1448      H1459   1.084       .  S
C1449      C1450   1.404       .  A
C1449      H1460   1.084       .  S
C1450      C1451   1.403       .  A
C1451      C1452   1.409       .  A
C1451      H1461   1.084       .  S
C1452      C1453   1.408       .  A
C1453      H1462   1.084       .  S
C1454      C1455   1.409       .  A
C1454      H1463   1.084       .  S
C1455      C1456   1.409       .  A
C1456      H1464   1.084       .  S
C1465      C1466   1.404       .  A
C1465      C1470   1.406       .  A
C1465      H1481   1.083       .  S
C1466      C1467   1.405       .  A
C1466      H1482   1.083       .  S
C1467      C1477   1.412       .  A
C1467      C1468   1.412       .  A
C1468      C1474   1.409       .  A
C1468      C1469   1.414       .  A
C1469      C1471   1.410       .  A
C1469      C1470   1.412       .  A
C1470      C1478   1.411       .  A
C1471      C1480   1.398       .  A
C1471      C1472   1.402       .  A
C1472      C1473   1.395       .  A
C1472      H1483   1.084       .  S
C1473      C1474   1.402       .  A
C1473      H1484   1.084       .  S
C1474      C1475   1.397       .  A
C1475      C1476   1.409       .  A
C1475      H1485   1.084       .  S
C1476      C1477   1.411       .  A
C1477      H1486   1.084       .  S
C1478      C1479   1.411       .  A
C1478      H1487   1.084       .  S
C1479      C1480   1.409       .  A
C1480      H1488   1.084       .  S
C1489      C1490   1.401       .  A
C1489      C1494   1.405       .  A
C1489      H1505   1.084       .  S
C1490      C1491   1.405       .  A
C1490      H1506   1.083       .  S
C1491      C1501   1.407       .  A
C1491      C1492   1.412       .  A
C1492      C1498   1.412       .  A
C1492      C1493   1.415       .  A
C1493      C1495   1.413       .  A
C1493      C1494   1.412       .  A
C1494      C1502   1.405       .  A
C1495      C1504   1.406       .  A
C1495      C1496   1.403       .  A
C1496      C1497   1.399       .  A
C1496      H1507   1.083       .  S
C1497      C1498   1.404       .  A
C1497      H1508   1.084       .  S
C1498      C1499   1.405       .  A
C1499      C1500   1.406       .  A
C1499      H1509   1.085       .  S
C1500      C1501   1.409       .  A
C1501      H1510   1.084       .  S
C1502      C1503   1.407       .  A
C1502      H1511   1.085       .  S
C1503      C1504   1.405       .  A
C1504      H1512   1.084       .  S
C1513      C1514   1.396       .  A
C1513      C1518   1.402       .  A
C1513      H1529   1.083       .  S
C1514      C1515   1.402       .  A
C1514      H1530   1.084       .  S
C1515      C1525   1.399       .  A
C1515      C1516   1.412       .  A
C1516      C1522   1.412       .  A
C1516      C1517   1.411       .  A
C1517      C1519   1.413       .  A
C1517      C1518   1.411       .  A
C1518      C1526   1.399       .  A
C1519      C1528   1.405       .  A
C1519      C1520   1.404       .  A
C1520      C1521   1.401       .  A
C1520      H1531   1.084       .  S
C1521      C1522   1.404       .  A
C1521      H1532   1.083       .  S
C1522      C1523   1.406       .  A
C1523      C1524   1.405       .  A
C1523      H1533   1.084       .  S
C1524      C1525   1.402       .  A
C1525      H1534   1.085       .  S
C1526      C1527   1.404       .  A
C1526      H1535   1.085       .  S
C1527      C1528   1.406       .  A
C1528      H1536   1.085       .  S
C1537      C1538   1.400       .  A
C1537      C1542   1.404       .  A
C1537      H1553   1.083       .  S
C1538      C1539   1.404       .  A
C1538      H1554   1.084       .  S
C1539      C1549   1.406       .  A
C1539      C1540   1.413       .  A
C1540      C1546   1.411       .  A
C1540      C1541   1.411       .  A
C1541      C1543   1.412       .  A
C1541      C1542   1.412       .  A
C1542      C1550   1.404       .  A
C1543      C1552   1.399       .  A
C1543      C1544   1.402       .  A
C1544      C1545   1.397       .  A
C1544      H1555   1.084       .  S
C1545      C1546   1.403       .  A
C1545      H1556   1.084       .  S
C1546      C1547   1.399       .  A
C1547      C1548   1.405   1_554  A
C1547      H1557   1.085       .  S
C1548      C1549   1.405   1_556  A
C1549      H1558   1.085   1_554  S
C1550      C1551   1.404       .  A
C1550      H1559   1.084       .  S
C1551      C1552   1.402       .  A
C1552      H1560   1.085       .  S
C1561      C1562   1.400       .  A
C1561      C1566   1.404       .  A
C1561      H1577   1.083       .  S
C1562      C1563   1.404       .  A
C1562      H1578   1.084       .  S
C1563      C1573   1.404       .  A
C1563      C1564   1.411       .  A
C1564      C1570   1.413       .  A
C1564      C1565   1.414       .  A
C1565      C1567   1.411       .  A
C1565      C1566   1.413       .  A
C1566      C1574   1.406       .  A
C1567      C1576   1.404       .  A
C1567      C1568   1.404       .  A
C1568      C1569   1.400       .  A
C1568      H1579   1.084       .  S
C1569      C1570   1.404       .  A
C1569      H1580   1.084       .  S
C1570      C1571   1.406       .  A
C1571      C1572   1.407       .  A
C1571      H1581   1.084       .  S
C1572      C1573   1.407       .  A
C1573      H1582   1.085       .  S
C1574      C1575   1.406       .  A
C1574      H1583   1.084       .  S
C1575      C1576   1.408       .  A
C1576      H1584   1.085       .  S
C1585      C1586   1.404       .  A
C1585      C1590   1.405       .  A
C1585      H1601   1.083       .  S
C1586      C1587   1.406       .  A
C1586      H1602   1.083       .  S
C1587      C1597   1.411       .  A
C1587      C1588   1.411       .  A
C1588      C1594   1.411       .  A
C1588      C1589   1.416       .  A
C1589      C1591   1.409       .  A
C1589      C1590   1.413       .  A
C1590      C1598   1.414       .  A
C1591      C1600   1.400       .  A
C1591      C1592   1.404       .  A
C1592      C1593   1.397       .  A
C1592      H1603   1.084       .  S
C1593      C1594   1.403       .  A
C1593      H1604   1.084       .  S
C1594      C1595   1.403       .  A
C1595      C1596   1.409       .  A
C1595      H1605   1.084       .  S
C1596      C1597   1.412       .  A
C1597      H1606   1.084       .  S
C1598      C1599   1.411       .  A
C1598      H1607   1.084       .  S
C1599      C1600   1.411       .  A
C1600      H1608   1.084       .  S
C1609      C1610   1.404       .  A
C1609      C1614   1.405       .  A
C1609      H1625   1.083       .  S
C1610      C1611   1.405       .  A
C1610      H1626   1.083       .  S
C1611      C1621   1.412       .  A
C1611      C1612   1.412       .  A
C1612      C1618   1.410       .  A
C1612      C1613   1.415       .  A
C1613      C1615   1.411       .  A
C1613      C1614   1.412       .  A
C1614      C1622   1.411       .  A
C1615      C1624   1.400       .  A
C1615      C1616   1.402       .  A
C1616      C1617   1.396       .  A
C1616      H1627   1.084       .  S
C1617      C1618   1.403       .  A
C1617      H1628   1.084       .  S
C1618      C1619   1.400       .  A
C1619      C1620   1.409       .  A
C1619      H1629   1.084       .  S
C1620      C1621   1.410       .  A
C1621      H1630   1.084       .  S
C1622      C1623   1.411       .  A
C1622      H1631   1.084       .  S
C1623      C1624   1.408       .  A
C1624      H1632   1.084       .  S
C1633      C1634   1.399       .  A
C1633      C1638   1.403       .  A
C1633      H1649   1.084       .  S
C1634      C1635   1.403       .  A
C1634      H1650   1.083       .  S
C1635      C1645   1.404       .  A
C1635      C1636   1.413       .  A
C1636      C1642   1.412       .  A
C1636      C1637   1.411       .  A
C1637      C1639   1.412       .  A
C1637      C1638   1.412       .  A
C1638      C1646   1.403       .  A
C1639      C1648   1.401       .  A
C1639      C1640   1.403       .  A
C1640      C1641   1.398       .  A
C1640      H1651   1.083       .  S
C1641      C1642   1.403       .  A
C1641      H1652   1.084       .  S
C1642      C1643   1.401       .  A
C1643      C1644   1.405       .  A
C1643      H1653   1.085       .  S
C1644      C1645   1.404       .  A
C1645      H1654   1.084       .  S
C1646      C1647   1.404       .  A
C1646      H1655   1.085       .  S
C1647      C1648   1.404       .  A
C1648      H1656   1.084       .  S
C1657      C1658   1.398   1_556  A
C1657      C1662   1.403       .  A
C1657      H1673   1.084       .  S
C1658      C1659   1.403       .  A
C1658      H1674   1.083       .  S
C1659      C1669   1.401       .  A
C1659      C1660   1.411       .  A
C1660      C1666   1.412       .  A
C1660      C1661   1.411   1_554  A
C1661      C1663   1.413       .  A
C1661      C1662   1.412       .  A
C1662      C1670   1.400       .  A
C1663      C1672   1.404       .  A
C1663      C1664   1.404   1_556  A
C1664      C1665   1.400       .  A
C1664      H1675   1.083   1_554  S
C1665      C1666   1.404       .  A
C1665      H1676   1.084       .  S
C1666      C1667   1.405       .  A
C1667      C1668   1.406       .  A
C1667      H1677   1.084       .  S
C1668      C1669   1.406       .  A
C1669      H1678   1.084       .  S
C1670      C1671   1.403       .  A
C1670      H1679   1.085       .  S
C1671      C1672   1.404       .  A
C1672      H1680   1.084       .  S
C1681      C1682   1.396       .  A
C1681      C1686   1.402       .  A
C1681      H1697   1.084       .  S
C1682      C1683   1.402       .  A
C1682      H1698   1.084       .  S
C1683      C1693   1.398       .  A
C1683      C1684   1.410       .  A
C1684      C1690   1.412       .  A
C1684      C1685   1.413       .  A
C1685      C1687   1.411       .  A
C1685      C1686   1.410       .  A
C1686      C1694   1.399       .  A
C1687      C1696   1.409       .  A
C1687      C1688   1.405       .  A
C1688      C1689   1.403       .  A
C1688      H1699   1.083       .  S
C1689      C1690   1.405       .  A
C1689      H1700   1.083       .  S
C1690      C1691   1.409       .  A
C1691      C1692   1.410       .  A
C1691      H1701   1.084       .  S
C1692      C1693   1.408       .  A
C1693      H1702   1.084       .  S
C1694      C1695   1.408       .  A
C1694      H1703   1.084       .  S
C1695      C1696   1.411       .  A
C1696      H1704   1.084       .  S
C1705      C1706   1.408   1_565  A
C1705      C1710   1.407       .  A
C1705      H1721   1.083       .  S
C1706      C1707   1.407       .  A
C1706      H1722   1.083       .  S
C1707      C1717   1.416       .  A
C1707      C1708   1.411       .  A
C1708      C1714   1.411       .  A
C1708      C1709   1.418   1_545  A
C1709      C1711   1.408       .  A
C1709      C1710   1.413       .  A
C1710      C1718   1.419       .  A
C1711      C1720   1.399       .  A
C1711      C1712   1.403       .  A
C1712      C1713   1.396   1_565  A
C1712      H1723   1.084       .  S
C1713      C1714   1.402       .  A
C1713      H1724   1.084       .  S
C1714      C1715   1.401       .  A
C1715      C1716   1.408       .  A
C1715      H1725   1.084       .  S
C1716      C1717   1.414       .  A
C1717      H1726   1.084       .  S
C1718      C1719   1.414       .  A
C1718      H1727   1.083       .  S
C1719      C1720   1.411       .  A
C1720      H1728   1.084       .  S
C1729      C1730   1.401       .  A
C1729      C1734   1.404       .  A
C1729      H1745   1.083       .  S
C1730      C1731   1.405       .  A
C1730      H1746   1.084       .  S
C1731      C1741   1.406       .  A
C1731      C1732   1.411       .  A
C1732      C1738   1.411       .  A
C1732      C1733   1.413       .  A
C1733      C1735   1.409       .  A
C1733      C1734   1.413       .  A
C1734      C1742   1.409       .  A
C1735      C1744   1.398       .  A
C1735      C1736   1.403       .  A
C1736      C1737   1.397       .  A
C1736      H1747   1.084       .  S
C1737      C1738   1.403       .  A
C1737      H1748   1.084       .  S
C1738      C1739   1.401       .  A
C1739      C1740   1.408       .  A
C1739      H1749   1.084       .  S
C1740      C1741   1.409       .  A
C1741      H1750   1.084       .  S
C1742      C1743   1.408       .  A
C1742      H1751   1.084       .  S
C1743      C1744   1.410       .  A
C1744      H1752   1.084       .  S
C1753      C1754   1.407   1_565  A
C1753      C1758   1.407       .  A
C1753      H1769   1.083       .  S
C1754      C1755   1.407       .  A
C1754      H1770   1.083       .  S
C1755      C1765   1.417       .  A
C1755      C1756   1.413       .  A
C1756      C1762   1.409       .  A
C1756      C1757   1.417   1_545  A
C1757      C1759   1.410       .  A
C1757      C1758   1.412       .  A
C1758      C1766   1.416       .  A
C1759      C1768   1.398       .  A
C1759      C1760   1.402       .  A
C1760      C1761   1.395   1_565  A
C1760      H1771   1.084       .  S
C1761      C1762   1.402       .  A
C1761      H1772   1.084       .  S
C1762      C1763   1.397       .  A
C1763      C1764   1.410       .  A
C1763      H1773   1.084       .  S
C1764      C1765   1.413       .  A
C1765      H1774   1.084       .  S
C1766      C1767   1.413       .  A
C1766      H1775   1.084       .  S
C1767      C1768   1.408       .  A
C1768      H1776   1.084       .  S
C1777      C1778   1.398   1_556  A
C1777      C1782   1.403       .  A
C1777      H1793   1.083       .  S
C1778      C1779   1.403       .  A
C1778      H1794   1.084       .  S
C1779      C1789   1.401       .  A
C1779      C1780   1.412       .  A
C1780      C1786   1.412       .  A
C1780      C1781   1.412   1_554  A
C1781      C1783   1.413       .  A
C1781      C1782   1.411       .  A
C1782      C1790   1.400       .  A
C1783      C1792   1.405       .  A
C1783      C1784   1.404       .  A
C1784      C1785   1.400       .  A
C1784      H1795   1.084       .  S
C1785      C1786   1.404   1_556  A
C1785      H1796   1.083   1_556  S
C1786      C1787   1.405       .  A
C1787      C1788   1.404       .  A
C1787      H1797   1.084       .  S
C1788      C1789   1.404       .  A
C1789      H1798   1.085       .  S
C1790      C1791   1.406       .  A
C1790      H1799   1.085       .  S
C1791      C1792   1.405       .  A
C1792      H1800   1.084       .  S
C1801      C1802   1.395       .  A
C1801      C1806   1.401       .  A
C1801      H1817   1.084       .  S
C1802      C1803   1.402       .  A
C1802      H1818   1.084       .  S
C1803      C1813   1.397       .  A
C1803      C1804   1.411       .  A
C1804      C1810   1.412       .  A
C1804      C1805   1.410       .  A
C1805      C1807   1.413       .  A
C1805      C1806   1.412       .  A
C1806      C1814   1.396       .  A
C1807      C1816   1.406       .  A
C1807      C1808   1.404       .  A
C1808      C1809   1.401       .  A
C1808      H1819   1.084       .  S
C1809      C1810   1.405       .  A
C1809      H1820   1.083       .  S
C1810      C1811   1.406       .  A
C1811      C1812   1.408       .  A
C1811      H1821   1.084       .  S
C1812      C1813   1.404       .  A
C1813      H1822   1.085       .  S
C1814      C1815   1.400       .  A
C1814      H1823   1.085       .  S
C1815      C1816   1.405       .  A
C1816      H1824   1.084       .  S
C1825      C1826   1.399       .  A
C1825      C1830   1.404       .  A
C1825      H1841   1.084       .  S
C1826      C1827   1.403       .  A
C1826      H1842   1.084       .  S
C1827      C1837   1.403       .  A
C1827      C1828   1.411       .  A
C1828      C1834   1.412       .  A
C1828      C1829   1.417       .  A
C1829      C1831   1.412       .  A
C1829      C1830   1.410       .  A
C1830      C1838   1.403       .  A
C1831      C1840   1.412       .  A
C1831      C1832   1.405       .  A
C1832      C1833   1.404       .  A
C1832      H1843   1.083       .  S
C1833      C1834   1.405       .  A
C1833      H1844   1.083       .  S
C1834      C1835   1.411       .  A
C1835      C1836   1.410       .  A
C1835      H1845   1.084       .  S
C1836      C1837   1.408       .  A
C1837      H1846   1.084       .  S
C1838      C1839   1.410       .  A
C1838      H1847   1.084       .  S
C1839      C1840   1.411       .  A
C1840      H1848   1.084       .  S
C1849      C1850   1.401       .  A
C1849      C1854   1.405       .  A
C1849      H1865   1.083       .  S
C1850      C1851   1.405       .  A
C1850      H1866   1.084       .  S
C1851      C1861   1.406       .  A
C1851      C1852   1.412       .  A
C1852      C1858   1.413       .  A
C1852      C1853   1.415       .  A
C1853      C1855   1.412       .  A
C1853      C1854   1.411       .  A
C1854      C1862   1.405       .  A
C1855      C1864   1.406       .  A
C1855      C1856   1.404       .  A
C1856      C1857   1.400       .  A
C1856      H1867   1.084       .  S
C1857      C1858   1.404       .  A
C1857      H1868   1.083       .  S
C1858      C1859   1.406       .  A
C1859      C1860   1.405       .  A
C1859      H1869   1.084       .  S
C1860      C1861   1.408       .  A
C1861      H1870   1.085       .  S
C1862      C1863   1.411       .  A
C1862      H1871   1.084       .  S
C1863      C1864   1.408       .  A
C1864      H1872   1.084       .  S
C1873      C1874   1.399       .  A
C1873      C1878   1.404       .  A
C1873      H1889   1.084       .  S
C1874      C1875   1.403       .  A
C1874      H1890   1.083       .  S
C1875      C1885   1.404       .  A
C1875      C1876   1.413       .  A
C1876      C1882   1.412       .  A
C1876      C1877   1.410       .  A
C1877      C1879   1.413       .  A
C1877      C1878   1.412       .  A
C1878      C1886   1.403       .  A
C1879      C1888   1.401       .  A
C1879      C1880   1.403       .  A
C1880      C1881   1.397       .  A
C1880      H1891   1.084       .  S
C1881      C1882   1.403       .  A
C1881      H1892   1.084       .  S
C1882      C1883   1.398       .  A
C1883      C1884   1.404       .  A
C1883      H1893   1.085       .  S
C1884      C1885   1.405       .  A
C1885      H1894   1.084       .  S
C1886      C1887   1.407       .  A
C1886      H1895   1.085       .  S
C1887      C1888   1.404       .  A
C1888      H1896   1.085       .  S
C1897      C1898   1.403       .  A
C1897      C1902   1.405       .  A
C1897      H1913   1.083       .  S
C1898      C1899   1.405       .  A
C1898      H1914   1.083       .  S
C1899      C1909   1.411       .  A
C1899      C1900   1.413       .  A
C1900      C1906   1.409       .  A
C1900      C1901   1.412       .  A
C1901      C1903   1.411       .  A
C1901      C1902   1.411       .  A
C1902      C1910   1.408       .  A
C1903      C1912   1.397       .  A
C1903      C1904   1.401       .  A
C1904      C1905   1.394       .  A
C1904      H1915   1.084       .  S
C1905      C1906   1.402       .  A
C1905      H1916   1.084       .  S
C1906      C1907   1.396       .  A
C1907      C1908   1.408       .  A
C1907      H1917   1.084       .  S
C1908      C1909   1.410       .  A
C1909      H1918   1.084       .  S
C1910      C1911   1.410       .  A
C1910      H1919   1.084       .  S
C1911      C1912   1.406       .  A
C1912      H1920   1.084       .  S
C1921      C1922   1.398       .  A
C1921      C1926   1.404       .  A
C1921      H1937   1.083       .  S
C1922      C1923   1.403       .  A
C1922      H1938   1.085       .  S
C1923      C1933   1.402       .  A
C1923      C1924   1.412       .  A
C1924      C1930   1.411       .  A
C1924      C1925   1.412       .  A
C1925      C1927   1.413       .  A
C1925      C1926   1.411       .  A
C1926      C1934   1.401       .  A
C1927      C1936   1.405       .  A
C1927      C1928   1.403       .  A
C1928      C1929   1.399       .  A
C1928      H1939   1.085       .  S
C1929      C1930   1.404       .  A
C1929      H1940   1.083       .  S
C1930      C1931   1.403       .  A
C1931      C1932   1.408       .  A
C1931      H1941   1.083       .  S
C1932      C1933   1.408       .  A
C1933      H1942   1.085       .  S
C1934      C1935   1.406       .  A
C1934      H1943   1.084       .  S
C1935      C1936   1.404       .  A
C1936      H1944   1.085       .  S
C1945      C1946   1.399       .  A
C1945      C1950   1.403       .  A
C1945      H1961   1.084       .  S
C1946      C1947   1.404       .  A
C1946      H1962   1.084       .  S
C1947      C1957   1.400       .  A
C1947      C1948   1.411       .  A
C1948      C1954   1.414       .  A
C1948      C1949   1.410       .  A
C1949      C1951   1.411       .  A
C1949      C1950   1.413       .  A
C1950      C1958   1.403       .  A
C1951      C1960   1.400       .  A
C1951      C1952   1.403       .  A
C1952      C1953   1.398       .  A
C1952      H1963   1.084       .  S
C1953      C1954   1.402       .  A
C1953      H1964   1.084       .  S
C1954      C1955   1.403       .  A
C1955      C1956   1.403       .  A
C1955      H1965   1.084       .  S
C1956      C1957   1.406       .  A
C1957      H1966   1.085       .  S
C1958      C1959   1.406       .  A
C1958      H1967   1.084       .  S
C1959      C1960   1.405       .  A
C1960      H1968   1.085       .  S
C1969      C1970   1.398       .  A
C1969      C1974   1.403       .  A
C1969      H1985   1.085       .  S
C1970      C1971   1.403       .  A
C1970      H1986   1.083       .  S
C1971      C1981   1.400       .  A
C1971      C1972   1.412       .  A
C1972      C1978   1.413       .  A
C1972      C1973   1.410       .  A
C1973      C1975   1.412       .  A
C1973      C1974   1.412       .  A
C1974      C1982   1.401       .  A
C1975      C1984   1.402       .  A
C1975      C1976   1.403       .  A
C1976      C1977   1.398       .  A
C1976      H1987   1.082       .  S
C1977      C1978   1.402       .  A
C1977      H1988   1.085       .  S
C1978      C1979   1.402       .  A
C1979      C1980   1.401       .  A
C1979      H1989   1.085       .  S
C1980      C1981   1.403       .  A
C1981      H1990   1.084       .  S
C1982      C1983   1.407       .  A
C1982      H1991   1.085       .  S
C1983      C1984   1.405       .  A
C1984      H1992   1.084       .  S
C1993      C1994   1.398       .  A
C1993      C1998   1.403       .  A
C1993      H2009   1.084       .  S
C1994      C1995   1.403       .  A
C1994      H2010   1.084       .  S
C1995      C2005   1.402       .  A
C1995      C1996   1.411       .  A
C1996      C2002   1.412       .  A
C1996      C1997   1.411       .  A
C1997      C1999   1.412       .  A
C1997      C1998   1.412       .  A
C1998      C2006   1.402       .  A
C1999      C2008   1.404       .  A
C1999      C2000   1.403       .  A
C2000      C2001   1.399       .  A
C2000      H2011   1.084       .  S
C2001      C2002   1.404       .  A
C2001      H2012   1.084       .  S
C2002      C2003   1.404       .  A
C2003      C2004   1.406       .  A
C2003      H2013   1.084       .  S
C2004      C2005   1.406       .  A
C2005      H2014   1.085       .  S
C2006      C2007   1.403       .  A
C2006      H2015   1.085       .  S
C2007      C2008   1.403       .  A
C2008      H2016   1.084       .  S
C2017      C2018   1.397       .  A
C2017      C2022   1.403       .  A
C2017      H2033   1.084       .  S
C2018      C2019   1.403       .  A
C2018      H2034   1.084       .  S
C2019      C2029   1.401       .  A
C2019      C2020   1.410       .  A
C2020      C2026   1.412       .  A
C2020      C2021   1.416       .  A
C2021      C2023   1.412       .  A
C2021      C2022   1.411       .  A
C2022      C2030   1.402       .  A
C2023      C2032   1.412       .  A
C2023      C2024   1.406       .  A
C2024      C2025   1.404       .  A
C2024      H2035   1.083       .  S
C2025      C2026   1.406       .  A
C2025      H2036   1.083       .  S
C2026      C2027   1.412       .  A
C2027      C2028   1.411       .  A
C2027      H2037   1.084       .  S
C2028      C2029   1.410       .  A
C2029      H2038   1.084       .  S
C2030      C2031   1.409       .  A
C2030      H2039   1.084       .  S
C2031      C2032   1.411       .  A
C2032      H2040   1.084       .  S
C2041      C2042   1.405   1_566  A
C2041      C2046   1.406       .  A
C2041      H2057   1.083       .  S
C2042      C2043   1.405       .  A
C2042      H2058   1.083       .  S
C2043      C2053   1.413       .  A
C2043      C2044   1.412       .  A
C2044      C2050   1.409       .  A
C2044      C2045   1.415   1_544  A
C2045      C2047   1.410       .  A
C2045      C2046   1.412       .  A
C2046      C2054   1.413       .  A
C2047      C2056   1.399       .  A
C2047      C2048   1.402       .  A
C2048      C2049   1.395   1_565  A
C2048      H2059   1.084       .  S
C2049      C2050   1.402   1_556  A
C2049      H2060   1.084       .  S
C2050      C2051   1.397       .  A
C2051      C2052   1.410       .  A
C2051      H2061   1.084       .  S
C2052      C2053   1.411       .  A
C2053      H2062   1.084       .  S
C2054      C2055   1.412       .  A
C2054      H2063   1.084       .  S
C2055      C2056   1.409       .  A
C2056      H2064   1.084       .  S
C2065      C2066   1.398       .  A
C2065      C2070   1.403       .  A
C2065      H2081   1.084       .  S
C2066      C2067   1.403       .  A
C2066      H2082   1.083       .  S
C2067      C2077   1.402       .  A
C2067      C2068   1.412       .  A
C2068      C2074   1.411       .  A
C2068      C2069   1.411       .  A
C2069      C2071   1.412       .  A
C2069      C2070   1.412       .  A
C2070      C2078   1.401       .  A
C2071      C2080   1.403       .  A
C2071      C2072   1.404       .  A
C2072      C2073   1.399       .  A
C2072      H2083   1.083       .  S
C2073      C2074   1.404       .  A
C2073      H2084   1.084       .  S
C2074      C2075   1.402       .  A
C2075      C2076   1.407       .  A
C2075      H2085   1.085       .  S
C2076      C2077   1.406       .  A
C2077      H2086   1.084       .  S
C2078      C2079   1.405       .  A
C2078      H2087   1.085       .  S
C2079      C2080   1.405       .  A
C2080      H2088   1.084       .  S
C2089      C2090   1.401       .  A
C2089      C2094   1.404       .  A
C2089      H2105   1.083       .  S
C2090      C2091   1.404       .  A
C2090      H2106   1.084       .  S
C2091      C2101   1.407       .  A
C2091      C2092   1.412       .  A
C2092      C2098   1.412       .  A
C2092      C2093   1.415       .  A
C2093      C2095   1.412       .  A
C2093      C2094   1.413       .  A
C2094      C2102   1.407       .  A
C2095      C2104   1.405       .  A
C2095      C2096   1.404       .  A
C2096      C2097   1.400       .  A
C2096      H2107   1.084       .  S
C2097      C2098   1.404       .  A
C2097      H2108   1.083       .  S
C2098      C2099   1.406       .  A
C2099      C2100   1.407       .  A
C2099      H2109   1.084       .  S
C2100      C2101   1.408       .  A
C2101      H2110   1.085       .  S
C2102      C2103   1.407       .  A
C2102      H2111   1.084       .  S
C2103      C2104   1.407       .  A
C2104      H2112   1.085       .  S
C2113      C2114   1.402       .  A
C2113      C2118   1.405       .  A
C2113      H2129   1.083       .  S
C2114      C2115   1.405       .  A
C2114      H2130   1.083       .  S
C2115      C2125   1.408       .  A
C2115      C2116   1.411       .  A
C2116      C2122   1.411       .  A
C2116      C2117   1.414       .  A
C2117      C2119   1.409       .  A
C2117      C2118   1.412       .  A
C2118      C2126   1.410       .  A
C2119      C2128   1.400       .  A
C2119      C2120   1.404       .  A
C2120      C2121   1.397       .  A
C2120      H2131   1.084       .  S
C2121      C2122   1.403       .  A
C2121      H2132   1.084       .  S
C2122      C2123   1.401       .  A
C2123      C2124   1.410       .  A
C2123      H2133   1.084       .  S
C2124      C2125   1.409       .  A
C2125      H2134   1.084       .  S
C2126      C2127   1.409       .  A
C2126      H2135   1.084       .  S
C2127      C2128   1.411       .  A
C2128      H2136   1.084       .  S
C2137      C2138   1.395   1_545  A
C2137      C2142   1.402       .  A
C2137      H2153   1.084       .  S
C2138      C2139   1.402       .  A
C2138      H2154   1.084       .  S
C2139      C2149   1.396       .  A
C2139      C2140   1.409       .  A
C2140      C2146   1.413       .  A
C2140      C2141   1.414   1_565  A
C2141      C2143   1.411       .  A
C2141      C2142   1.411       .  A
C2142      C2150   1.399       .  A
C2143      C2152   1.410       .  A
C2143      C2144   1.406       .  A
C2144      C2145   1.404   1_545  A
C2144      H2155   1.083       .  S
C2145      C2146   1.406       .  A
C2145      H2156   1.083       .  S
C2146      C2147   1.413       .  A
C2147      C2148   1.411       .  A
C2147      H2157   1.084       .  S
C2148      C2149   1.409       .  A
C2149      H2158   1.084       .  S
C2150      C2151   1.407       .  A
C2150      H2159   1.084       .  S
C2151      C2152   1.411       .  A
C2152      H2160   1.084       .  S
C2161      C2162   1.398       .  A
C2161      C2166   1.403       .  A
C2161      H2177   1.084       .  S
C2162      C2163   1.403       .  A
C2162      H2178   1.084       .  S
C2163      C2173   1.401       .  A
C2163      C2164   1.412       .  A
C2164      C2170   1.412       .  A
C2164      C2165   1.409       .  A
C2165      C2167   1.412       .  A
C2165      C2166   1.412       .  A
C2166      C2174   1.400       .  A
C2167      C2176   1.401       .  A
C2167      C2168   1.403       .  A
C2168      C2169   1.398       .  A
C2168      H2179   1.084       .  S
C2169      C2170   1.403       .  A
C2169      H2180   1.084       .  S
C2170      C2171   1.400       .  A
C2171      C2172   1.406       .  A
C2171      H2181   1.085       .  S
C2172      C2173   1.405       .  A
C2173      H2182   1.084       .  S
C2174      C2175   1.405       .  A
C2174      H2183   1.085       .  S
C2175      C2176   1.406       .  A
C2176      H2184   1.085       .  S
C2185      C2186   1.398       .  A
C2185      C2190   1.403       .  A
C2185      H2201   1.084       .  S
C2186      C2187   1.403       .  A
C2186      H2202   1.084       .  S
C2187      C2197   1.401       .  A
C2187      C2188   1.412       .  A
C2188      C2194   1.412       .  A
C2188      C2189   1.410       .  A
C2189      C2191   1.412       .  A
C2189      C2190   1.412       .  A
C2190      C2198   1.401       .  A
C2191      C2200   1.402       .  A
C2191      C2192   1.404       .  A
C2192      C2193   1.399       .  A
C2192      H2203   1.084       .  S
C2193      C2194   1.404       .  A
C2193      H2204   1.084       .  S
C2194      C2195   1.403       .  A
C2195      C2196   1.405       .  A
C2195      H2205   1.085       .  S
C2196      C2197   1.403       .  A
C2197      H2206   1.085       .  S
C2198      C2199   1.403       .  A
C2198      H2207   1.085       .  S
C2199      C2200   1.405       .  A
C2200      H2208   1.084       .  S
C2209      C2210   1.399       .  A
C2209      C2214   1.403       .  A
C2209      H2225   1.083       .  S
C2210      C2211   1.403       .  A
C2210      H2226   1.084       .  S
C2211      C2221   1.403       .  A
C2211      C2212   1.412       .  A
C2212      C2218   1.412       .  A
C2212      C2213   1.412       .  A
C2213      C2215   1.412       .  A
C2213      C2214   1.412       .  A
C2214      C2222   1.403       .  A
C2215      C2224   1.403       .  A
C2215      C2216   1.403       .  A
C2216      C2217   1.399       .  A
C2216      H2227   1.084       .  S
C2217      C2218   1.404       .  A
C2217      H2228   1.083       .  S
C2218      C2219   1.403       .  A
C2219      C2220   1.405       .  A
C2219      H2229   1.084       .  S
C2220      C2221   1.404       .  A
C2221      H2230   1.085       .  S
C2222      C2223   1.405       .  A
C2222      H2231   1.084       .  S
C2223      C2224   1.405       .  A
C2224      H2232   1.085       .  S
C2233      C2234   1.399       .  A
C2233      C2238   1.403       .  A
C2233      H2249   1.083       .  S
C2234      C2235   1.404       .  A
C2234      H2250   1.084       .  S
C2235      C2245   1.402       .  A
C2235      C2236   1.411       .  A
C2236      C2242   1.413       .  A
C2236      C2237   1.414       .  A
C2237      C2239   1.412       .  A
C2237      C2238   1.413       .  A
C2238      C2246   1.405       .  A
C2239      C2248   1.405       .  A
C2239      C2240   1.405       .  A
C2240      C2241   1.401       .  A
C2240      H2251   1.084       .  S
C2241      C2242   1.404       .  A
C2241      H2252   1.083       .  S
C2242      C2243   1.408       .  A
C2243      C2244   1.407       .  A
C2243      H2253   1.084       .  S
C2244      C2245   1.407       .  A
C2245      H2254   1.085       .  S
C2246      C2247   1.405       .  A
C2246      H2255   1.084       .  S
C2247      C2248   1.409       .  A
C2248      H2256   1.085       .  S
