geometry optimzed in LAMMPS
_audit_creation_date              2020-12-01 
_audit_creation_method            'lammps2cif' 
_symmetry_space_group_name_H-M    'P1' 
_symmetry_Int_Tables_number       1 
_symmetry_cell_setting            triclinic 
loop_ 
_symmetry_equiv_pos_as_xyz 
  x,y,z 
_cell_length_a                    52.00896343 
_cell_length_b                    51.38443533662584 
_cell_length_c                    37.730200282245384 
_cell_angle_alpha                 89.81488444450375 
_cell_angle_beta                  89.7693076414829 
_cell_angle_gamma                 90.08120347314349 
loop_ 
_atom_site_label 
_atom_site_type_symbol 
_atom_site_fract_x 
_atom_site_fract_y 
_atom_site_fract_z 
_atom_site_charge 
O1          O  0.83812418  0.79159407  0.39358721    -0.82500
C2          C  0.84613119  0.80778214  0.24888536     0.96800
O3          O  0.82830081  0.79559531  0.26402248    -0.71600
O4          O  0.85279432  0.76153734  0.30229142    -0.75200
Al5        Al  0.82522902  0.78475196  0.31118992     1.49000
C6          C  0.86913170  0.75383834  0.32463601     0.92100
O7          O  0.89660890  0.81212053  0.34121969    -0.81500
O8          O  0.83655614  0.85859935  0.35263083    -0.75000
Al9        Al  0.86596003  0.80225527  0.36524841     1.90100
O10         O  0.88196853  0.84823281  0.31858510    -0.74100
O11         O  0.81108327  0.84061481  0.29243419    -0.73900
O12         O  0.85805014  0.82604352  0.26431093    -0.79600
O13         O  0.79522268  0.80544545  0.31705589    -0.77800
O14         O  0.84582694  0.80938405  0.32872900    -1.13900
O15         O  0.81821108  0.76745229  0.35463908    -0.73100
C16         C  0.82398944  0.77252929  0.38612883     0.97600
C17         C  0.90070607  0.83421292  0.32785823     0.94000
Al18       Al  0.84662980  0.84096063  0.30877497     1.55600
O19         O  0.87366023  0.76726103  0.35180958    -0.77800
C20         C  0.79244029  0.82497142  0.29685326     0.98200
C21         C  0.84860312  0.85532983  0.38175692     0.93000
O22         O  0.86236551  0.83541452  0.38658196    -0.83100
O23         O  0.64642256  0.79308370  0.10909967    -0.82500
C24         C  0.66040097  0.80525782  0.25465429     0.96800
O25         O  0.67501598  0.79256829  0.23450344    -0.71600
O26         O  0.64580213  0.76048176  0.19960494    -0.75200
Al27       Al  0.67205989  0.78412085  0.18617793     1.49000
C28         C  0.62596185  0.75492861  0.18217481     0.92100
O29         O  0.59913888  0.81578539  0.17773914    -0.81500
O30         O  0.65948214  0.85897299  0.15344925    -0.75000
Al31       Al  0.62479111  0.80522448  0.14559470     1.90100
O32         O  0.61785803  0.85072001  0.19678013    -0.74100
O33         O  0.69003218  0.83837746  0.20574684    -0.73900
O34         O  0.64716371  0.82430607  0.24331266    -0.79600
O35         O  0.70206786  0.80446786  0.17534605    -0.77800
O36         O  0.65023346  0.80992489  0.17610370    -1.13900
O37         O  0.67238913  0.76884500  0.14017129    -0.73100
C38         C  0.65972941  0.77280656  0.11222733     0.97600
C39         C  0.59756794  0.83789639  0.19139306     0.94000
Al40       Al  0.65350327  0.84064855  0.19785053     1.55600
O41         O  0.61679142  0.77053544  0.15980370    -0.77800
C42         C  0.70765999  0.82297357  0.19612706     0.98200
C43         C  0.64428929  0.85746038  0.12710094     0.93000
O44         O  0.62815677  0.83906129  0.12469984    -0.83100
O45         O  0.37184602  0.83434167  0.37440540    -0.82500
C46         C  0.34549077  0.80187839  0.00395246     0.96800
O47         O  0.35309286  0.81981179  0.49449663    -0.71600
O48         O  0.38290147  0.84535853  0.44664993    -0.75200
Al49       Al  0.34708529  0.83553615  0.44840487     1.49000
C50         C  0.40302384  0.83242406  0.44028624     0.92100
O51         O  0.38363526  0.76584807  0.40764707    -0.81500
O52         O  0.32846258  0.76330947  0.39100655    -0.75000
Al53       Al  0.37515022  0.80053272  0.39461396     1.90100
O54         O  0.35652318  0.75604193  0.44992952    -0.74100
O55         O  0.29842176  0.79794589  0.42874778    -0.73900
O56         O  0.32713731  0.78654559  0.48548437    -0.79600
O57         O  0.31077391  0.83291232  0.45680842    -0.77800
O58         O  0.35034153  0.80485239  0.42656269    -1.13900
O59         O  0.34074934  0.85379671  0.40407929    -0.73100
C60         C  0.35543988  0.85233160  0.37709724     0.97600
C61         C  0.37629745  0.75082213  0.43209922     0.94000
Al62       Al  0.32931243  0.77848063  0.43743320     1.55600
O63         O  0.40129571  0.81065916  0.42572198    -0.77800
C64         C  0.29324404  0.81679549  0.44930059     0.98200
C65         C  0.33997008  0.76837910  0.36223805     0.93000
O66         O  0.35252905  0.78914675  0.35921434    -0.83100
O67         O  0.13316786  0.83496837  0.12830915    -0.82500
C68         C  0.16182320  0.80392169  0.49250813     0.96800
O69         O  0.15055353  0.82028255  0.00929704    -0.71600
O70         O  0.12119233  0.84597579  0.05683078    -0.75200
Al71       Al  0.15717504  0.83753479  0.05412720     1.49000
C72         C  0.10168676  0.83249823  0.06444404     0.92100
O73         O  0.12407029  0.76627313  0.09491699    -0.81500
O74         O  0.17949347  0.76596911  0.11227733    -0.75000
Al75       Al  0.13114616  0.80123559  0.10838358     1.90100
O76         O  0.15240034  0.75740904  0.05341005    -0.74100
O77         O  0.20761836  0.80332363  0.07526728    -0.73900
O78         O  0.18048276  0.79053117  0.01764389    -0.79600
O79         O  0.19380069  0.83664845  0.04458986    -0.77800
O80         O  0.15560303  0.80684117  0.07647019    -1.13900
O81         O  0.16286773  0.85667503  0.09822432    -0.73100
C82         C  0.14788734  0.85439339  0.12501546     0.97600
C83         C  0.13241816  0.75165937  0.07077023     0.94000
Al84       Al  0.17828294  0.78171518  0.06590864     1.55600
O85         O  0.10406497  0.81039148  0.07804738    -0.77800
C86         C  0.21208698  0.82180442  0.05353948     0.98200
C87         C  0.16702954  0.77046821  0.14039804     0.93000
O88         O  0.15475301  0.79128881  0.14301247    -0.83100
O89         O  0.35723842  0.70889442  0.10969803    -0.82500
C90         C  0.34379460  0.69276223  0.25420182     0.96800
O91         O  0.32787165  0.70455055  0.23508640    -0.71600
O92         O  0.35608087  0.73827896  0.20116707    -0.75200
Al93       Al  0.33051479  0.71419265  0.18711482     1.49000
C94         C  0.37629164  0.74495680  0.18499958     0.92100
O95         O  0.40497236  0.68464471  0.17701020    -0.81500
O96         O  0.34537998  0.64079223  0.15152112    -0.75000
Al97       Al  0.37886247  0.69590179  0.14554589     1.90100
O98         O  0.38652856  0.64905484  0.19460468    -0.74100
O99         O  0.31402705  0.65923458  0.20579996    -0.73900
O100        O  0.35724593  0.67408087  0.24222797    -0.79600
O101        O  0.30122128  0.69301782  0.17589426    -0.77800
O102        O  0.35327051  0.68952580  0.17582475    -1.13900
O103        O  0.32939797  0.73032674  0.14185966    -0.73100
C104        C  0.34193497  0.72764289  0.11354217     0.97600
C105        C  0.40669183  0.66218673  0.19000708     0.94000
Al106      Al  0.35083222  0.65826920  0.19659559     1.55600
O107        O  0.38610613  0.73036421  0.16178210    -0.77800
C108        C  0.29600116  0.67446217  0.19699272     0.98200
C109        C  0.36068236  0.64340991  0.12515258     0.93000
O110        O  0.37607032  0.66255434  0.12310705    -0.83100
O111        O  0.15913962  0.70549822  0.39131507    -0.82500
C112        C  0.15829501  0.69419939  0.24600614     0.96800
O113        O  0.17554391  0.70560161  0.26327089    -0.71600
O114        O  0.14982293  0.73914106  0.30101931    -0.75200
Al115      Al  0.17641980  0.71502335  0.31135946     1.49000
C116        C  0.13231808  0.74644154  0.32193825     0.92100
O117        O  0.10318279  0.68813134  0.33378667    -0.81500
O118        O  0.16209263  0.64021546  0.34714432    -0.75000
Al119      Al  0.13259176  0.69643470  0.36030245     1.90100
O120        O  0.11776022  0.65199033  0.31085285    -0.74100
O121        O  0.19033415  0.65957006  0.29021028    -0.73900
O122        O  0.14506019  0.67588913  0.25951815    -0.79600
O123        O  0.20597143  0.69338243  0.31822008    -0.77800
O124        O  0.15440367  0.69018446  0.32536446    -1.13900
O125        O  0.18075054  0.73151995  0.35710705    -0.73100
C126        C  0.17079606  0.72661264  0.38701693     0.97600
C127        C  0.09918897  0.66632935  0.32007761     0.94000
Al128      Al  0.15401868  0.65926003  0.30377218     1.55600
O129        O  0.12570450  0.73209798  0.34768829    -0.77800
C130        C  0.20921078  0.67439603  0.29712267     0.98200
C131        C  0.14905768  0.64278806  0.37562421     0.93000
O132        O  0.13492592  0.66249153  0.38032024    -0.83100
O133        O  0.91796670  0.38253429  0.00733569    -0.82500
C134        C  0.94285140  0.40819443  0.37237454     0.96800
O135        O  0.92296524  0.39688667  0.38483635    -0.71600
O136        O  0.89562205  0.37070026  0.43397574    -0.75200
Al137      Al  0.90796987  0.40563334  0.43042764     1.49000
C138        C  0.90692837  0.34945005  0.43915041     0.92100
O139        O  0.97557357  0.36490727  0.46991009    -0.81500
O140        O  0.97960464  0.42267211  0.48578563    -0.75000
Al141      Al  0.94167610  0.37545125  0.48338077     1.90100
O142        O  0.98705909  0.39289901  0.42896573    -0.74100
O143        O  0.94701895  0.45314367  0.44749645    -0.73900
O144        O  0.95699910  0.42221917  0.39137571    -0.79600
O145        O  0.91233576  0.44181938  0.41951444    -0.77800
O146        O  0.93837446  0.40086434  0.45158595    -1.13900
O147        O  0.89108976  0.41410618  0.47517844    -0.73100
C148        C  0.89204206  0.39924005  0.50233042     0.97600
C149        C  0.99183249  0.37322881  0.44780112     0.94000
Al150      Al  0.96505442  0.42108980  0.43978814     1.55600
O151        O  0.92905998  0.34945517  0.45247994    -0.77800
C152        C  0.92893254  0.45894312  0.42653528     0.98200
C153        C  0.98651466  0.40773368  0.01082728     0.93000
O154        O  0.96683836  0.39384776  0.01569127    -0.83100
O155        O  0.91546968  0.61863503  0.23996927    -0.82500
C156        C  0.94410168  0.59257076  0.37487088     0.96800
O157        O  0.92534905  0.60479037  0.36113333    -0.71600
O158        O  0.90152685  0.63203930  0.30990964    -0.75200
Al159      Al  0.91134833  0.59634530  0.31507028     1.49000
C160        C  0.91437429  0.65230492  0.30354034     0.92100
O161        O  0.98207760  0.63209421  0.27660285    -0.81500
O162        O  0.98476841  0.57525912  0.26389950    -0.75000
Al163      Al  0.94815603  0.62301286  0.26198738     1.90100
O164        O  0.99051322  0.60603279  0.32075260    -0.74100
O165        O  0.94887092  0.54686703  0.30102245    -0.73900
O166        O  0.95826267  0.57786370  0.35681932    -0.79600
O167        O  0.91354109  0.56007821  0.32671609    -0.77800
O168        O  0.94259568  0.59901143  0.29509814    -1.13900
O169        O  0.89482784  0.58817121  0.27019411    -0.73100
C170        C  0.89725093  0.60238127  0.24261843     0.97600
C171        C  0.99660228  0.62523268  0.30154176     0.94000
Al172      Al  0.96814004  0.57808590  0.30908948     1.55600
O173        O  0.93666481  0.65077651  0.29084560    -0.77800
C174        C  0.92961606  0.54223293  0.32086664     0.98200
C175        C  0.98088446  0.58576554  0.23417574     0.93000
O176        O  0.96073292  0.59874219  0.22905431    -0.83100
O177        O  0.59335159  0.61952835  0.25645743    -0.82500
C178        C  0.55557867  0.58669015  0.12968596     0.96800
O179        O  0.57484713  0.60014199  0.13958318    -0.71600
O180        O  0.60098190  0.63047689  0.18532247    -0.75200
Al181      Al  0.59323116  0.59384949  0.18359485     1.49000
C182        C  0.58714686  0.65002414  0.19181433     0.92100
O183        O  0.52349527  0.62620156  0.22938770    -0.81500
O184        O  0.52653049  0.56953593  0.24711805    -0.75000
Al185      Al  0.55892282  0.62008402  0.23923911     1.90100
O186        O  0.51329984  0.59705770  0.18961986    -0.74100
O187        O  0.56091445  0.54240228  0.20617921    -0.73900
O188        O  0.54472429  0.57071291  0.15015218    -0.79600
O189        O  0.59266681  0.55683439  0.17373099    -0.77800
O190        O  0.56359373  0.59504948  0.20766262    -1.13900
O191        O  0.61341383  0.58837229  0.22715210    -0.73100
C192        C  0.61212380  0.60409975  0.25339644     0.97600
C193        C  0.50790425  0.61706926  0.20726034     0.94000
Al194      Al  0.53879701  0.57168415  0.19931274     1.55600
O195        O  0.56566835  0.64682403  0.20646049    -0.77800
C196        C  0.57808310  0.53827205  0.18290370     0.98200
C197        C  0.53140656  0.58274899  0.27448996     0.93000
O198        O  0.55137915  0.59637603  0.27547269    -0.83100
O199        O  0.56818169  0.39692587  0.47658727    -0.82500
C200        C  0.55359669  0.40441415  0.12655857     0.96800
O201        O  0.57197668  0.39218181  0.11192977    -0.71600
O202        O  0.59563022  0.36625221  0.05942162    -0.75200
Al203      Al  0.58596144  0.40175146  0.06637920     1.49000
C204        C  0.58298798  0.34602604  0.05257807     0.92100
O205        O  0.51461154  0.36752493  0.02911653    -0.81500
O206        O  0.51362416  0.42671111  0.01657313    -0.75000
Al207      Al  0.54829296  0.37643348  0.01362968     1.90100
O208        O  0.50555468  0.39509644  0.07160550    -0.74100
O209        O  0.55025899  0.45283116  0.05527377    -0.73900
O210        O  0.53955547  0.41996574  0.10952242    -0.79600
O211        O  0.58479860  0.43778627  0.08023373    -0.77800
O212        O  0.55451995  0.40015629  0.04682364    -1.13900
O213        O  0.60229613  0.41058866  0.02161885    -0.73100
C214        C  0.59107831  0.40267207  0.48430356     0.97600
C215        C  0.49953016  0.37599507  0.05249641     0.94000
Al216      Al  0.52978932  0.42187748  0.06161855     1.55600
O217        O  0.56034402  0.34799893  0.04136940    -0.77800
C218        C  0.56938212  0.45640867  0.07546830     0.98200
C219        C  0.50615404  0.41742786  0.47943933     0.93000
O220        O  0.51812726  0.39631163  0.48028536    -0.83100
O221        O  0.84035842  0.20017978  0.34892203    -0.82500
C222        C  0.84080575  0.20785627  0.99524619     0.96800
O223        O  0.82097429  0.20964399  0.47468534    -0.71600
O224        O  0.84100930  0.24245072  0.43086800    -0.75200
Al225      Al  0.81908467  0.21309424  0.42568696     1.49000
C226        C  0.86007319  0.24923798  0.41224201     0.92100
O227        O  0.89725566  0.19584940  0.40896451    -0.81500
O228        O  0.84559880  0.13973416  0.40432085    -0.75000
Al229      Al  0.86716082  0.19779777  0.38134295     1.90100
O230        O  0.88662381  0.16101042  0.43862394    -0.74100
O231        O  0.81533643  0.15892783  0.45786356    -0.73900
O232        O  0.85564324  0.18608591  0.48514972    -0.79600
O233        O  0.79339634  0.18562492  0.42452859    -0.77800
O234        O  0.84552229  0.19149724  0.41688217    -1.13900
O235        O  0.81272000  0.22352077  0.37738121    -0.73100
C236        C  0.82561735  0.21929380  0.34958001     0.97600
C237        C  0.90348340  0.17600267  0.42617835     0.94000
Al238      Al  0.85036367  0.16361025  0.44419442     1.55600
O239        O  0.86920151  0.23433584  0.38895328    -0.77800
C240        C  0.79405176  0.16869638  0.44937834     0.98200
C241        C  0.85769818  0.14200374  0.37492620     0.93000
O242        O  0.86952478  0.16270165  0.36707352    -0.83100
O243        O  0.65420829  0.20243093  0.13596077    -0.82500
C244        C  0.66614945  0.21126484  0.49807450     0.96800
O245        O  0.67648136  0.20551091  0.00918161    -0.71600
O246        O  0.65417759  0.23974347  0.04867921    -0.75200
Al247      Al  0.67710081  0.21146357  0.05769863     1.49000
C248        C  0.63508901  0.24693444  0.06690287     0.92100
O249        O  0.59957747  0.19263216  0.07278428    -0.81500
O250        O  0.65083399  0.13761799  0.08499340    -0.75000
Al251      Al  0.62867621  0.19667692  0.10184656     1.90100
O252        O  0.61138202  0.15727916  0.04580449    -0.74100
O253        O  0.68397764  0.15520509  0.03261813    -0.73900
O254        O  0.64407518  0.17896078  0.99979567    -0.79600
O255        O  0.70379181  0.18538658  0.06286095    -0.77800
O256        O  0.65139885  0.18919180  0.06794027    -1.13900
O257        O  0.68218014  0.22440997  0.10482536    -0.73100
C258        C  0.66963550  0.22116235  0.13314540     0.97600
C259        C  0.59394272  0.17264372  0.05553422     0.94000
Al260      Al  0.64798656  0.15970877  0.04317024     1.55600
O261        O  0.62601042  0.23242019  0.09076509    -0.77800
C262        C  0.70460358  0.16673807  0.04062690     0.98200
C263        C  0.63700804  0.14064243  0.11263641     0.93000
O264        O  0.62639783  0.16216296  0.11923002    -0.83100
O265        O  0.08017275  0.11878511  0.00773828    -0.82500
C266        C  0.05674581  0.09811977  0.36643999     0.96800
O267        O  0.07487209  0.10969503  0.38245234    -0.71600
O268        O  0.09729889  0.13454867  0.43651041    -0.75200
Al269      Al  0.08726854  0.09896011  0.42867506     1.49000
C270        C  0.08439961  0.15471148  0.44328169     0.92100
O271        O  0.01602709  0.13384163  0.46414840    -0.81500
O272        O  0.01147861  0.07699530  0.47239342    -0.75000
Al273      Al  0.04886326  0.12376174  0.48106988     1.90100
O274        O  0.00962367  0.11003422  0.41721231    -0.74100
O275        O  0.04853732  0.04952494  0.43802816    -0.73900
O276        O  0.04256258  0.08197390  0.38222322    -0.79600
O277        O  0.08495744  0.06269954  0.41488600    -0.77800
O278        O  0.05549644  0.10112729  0.44675612    -1.13900
O279        O  0.10207952  0.08897155  0.47404778    -0.73100
C280        C  0.09885696  0.10214799  0.50231970     0.97600
C281        C  0.00281215  0.12832851  0.43727870     0.94000
Al282      Al  0.03039851  0.08115851  0.42926616     1.55600
O283        O  0.06200792  0.15254676  0.45546061    -0.77800
C284        C  0.06851349  0.04483617  0.41979339     0.98200
C285        C  0.01332256  0.08765845  0.00471663     0.93000
O286        O  0.03332726  0.09998368  0.01304821    -0.83100
O287        O  0.08171987  0.87978866  0.24284659    -0.82500
C288        C  0.05407137  0.91103577  0.37570552     0.96800
O289        O  0.07225855  0.89713854  0.36326773    -0.71600
O290        O  0.09681639  0.86804140  0.31368723    -0.75200
Al291      Al  0.08751562  0.90413305  0.31683435     1.49000
C292        C  0.08373879  0.84774365  0.30892772     0.92100
O293        O  0.01587780  0.86904290  0.28548476    -0.81500
O294        O  0.01547469  0.92666701  0.26558659    -0.75000
Al295      Al  0.04935264  0.87641666  0.26716614     1.90100
O296        O  0.00869587  0.89964593  0.32479362    -0.74100
O297        O  0.05332587  0.95432184  0.29669744    -0.73900
O298        O  0.04296359  0.92774772  0.35692984    -0.79600
O299        O  0.08669124  0.94133919  0.32631608    -0.77800
O300        O  0.05631998  0.90196011  0.29726508    -1.13900
O301        O  0.10401651  0.91014512  0.27110317    -0.73100
C302        C  0.10065589  0.89539504  0.24426447     0.97600
C303        C  0.00192178  0.87917633  0.30911822     0.94000
Al304      Al  0.03237928  0.92517929  0.30956037     1.55600
O305        O  0.06121352  0.84955317  0.29753271    -0.77800
C306        C  0.07151712  0.95955700  0.31769901     0.98200
C307        C  0.01729933  0.91410036  0.23727392     0.93000
O308        O  0.03558178  0.89852775  0.23236239    -0.83100
O309        O  0.14890724  0.30038663  0.35925373    -0.82500
C310        C  0.17149798  0.30795792  0.99796885     0.96800
O311        O  0.17802572  0.29544751  0.48368442    -0.71600
O312        O  0.15268795  0.26256405  0.44511416    -0.75200
Al313      Al  0.17627411  0.28977784  0.43458735     1.49000
C314        C  0.13249306  0.25633122  0.42886519     0.92100
O315        O  0.10050986  0.31442015  0.43051351    -0.81500
O316        O  0.15760727  0.36368226  0.40804850    -0.75000
Al317      Al  0.12673645  0.30804308  0.39691385     1.90100
O318        O  0.11633409  0.35050882  0.45059774    -0.74100
O319        O  0.18966017  0.34414875  0.46106389    -0.73900
O320        O  0.14795781  0.32459570  0.49587055    -0.79600
O321        O  0.20360474  0.31397294  0.42602028    -0.77800
O322        O  0.15199773  0.31359256  0.42748503    -1.13900
O323        O  0.17846500  0.27801564  0.38700657    -0.73100
C324        C  0.16572824  0.28290722  0.35951563     0.97600
C325        C  0.09706428  0.33631288  0.44430703     0.94000
Al326      Al  0.15285024  0.34349080  0.45168748     1.55600
O327        O  0.12204277  0.27216634  0.40783104    -0.77800
C328        C  0.20815770  0.33031410  0.45022860     0.98200
C329        C  0.14250871  0.36173681  0.38150108     0.93000
O330        O  0.12677642  0.34297947  0.37919040    -0.83100
O331        O  0.34638212  0.28985065  0.14498038    -0.82500
C332        C  0.33636565  0.28668636  0.50559033     0.96800
O333        O  0.34019648  0.27468414  0.02886309    -0.71600
O334        O  0.35022947  0.25650385  0.08933034    -0.75200
Al335      Al  0.32546434  0.28051696  0.07265258     1.49000
C336        C  0.37417886  0.25791701  0.09377065     0.92100
O337        O  0.39141823  0.33081476  0.09248544    -0.81500
O338        O  0.34779845  0.36257627  0.08459819    -0.75000
Al339      Al  0.36607437  0.31007431  0.11433146     1.90100
O340        O  0.37907537  0.33496195  0.03738820    -0.74100
O341        O  0.30615207  0.33951740  0.05260504    -0.73900
O342        O  0.33687250  0.31349745  0.00548905    -0.79600
O343        O  0.29654414  0.29803219  0.05174178    -0.77800
O344        O  0.34449327  0.30890383  0.07826170    -1.13900
O345        O  0.30985718  0.28237696  0.11848476    -0.73100
C346        C  0.32494496  0.27861155  0.14425284     0.97600
C347        C  0.39631369  0.33654885  0.06083865     0.94000
Al348      Al  0.34274239  0.33555938  0.04757996     1.55600
O349        O  0.38493633  0.27983470  0.09825332    -0.77800
C350        C  0.29112433  0.32129359  0.04355870     0.98200
C351        C  0.34824427  0.36081822  0.11842090     0.93000
O352        O  0.34923534  0.33893009  0.13332571    -0.83100
O353        O  0.03798812  0.59189081  0.47353569    -0.82500
C354        C  0.05235367  0.59284450  0.12395039     0.96800
O355        O  0.03799270  0.57799791  0.10659073    -0.71600
O356        O  0.00581630  0.60527144  0.06994815    -0.75200
Al357      Al  0.02815926  0.57737616  0.05918559     1.49000
C358        C  0.00081510  0.62505688  0.05145906     0.92100
O359        O  0.06181996  0.65012688  0.03893071    -0.81500
O360        O  0.10100466  0.58613086  0.01803627    -0.75000
Al361      Al  0.04866214  0.62236606  0.01124329     1.90100
O362        O  0.09592289  0.63032278  0.05767547    -0.74100
O363        O  0.08251834  0.55896430  0.07652125    -0.73900
O364        O  0.07150447  0.60435545  0.10974781    -0.79600
O365        O  0.04695631  0.54581632  0.05202358    -0.77800
O366        O  0.05386584  0.59814420  0.04432504    -1.13900
O367        O  0.01152629  0.57388057  0.01476133    -0.73100
C368        C  0.01739163  0.57968848  0.47946841     0.97600
C369        C  0.08408253  0.65115599  0.05167997     0.94000
Al370      Al  0.08515142  0.59504315  0.06354259     1.55600
O371        O  0.01576509  0.63265257  0.02734335    -0.77800
C372        C  0.06606943  0.54128474  0.07185586     0.98200
C373        C  0.09857916  0.60017028  0.99021121     0.93000
O374        O  0.08258964  0.61424937  0.48468030    -0.83100
O375        O  0.03855955  0.39832098  0.26993191    -0.82500
C376        C  0.05572210  0.40723981  0.12327050     0.96800
O377        O  0.03991776  0.42020836  0.14130131    -0.71600
O378        O  0.00983959  0.38930716  0.17697486    -0.75200
Al379      Al  0.02983874  0.41892317  0.18927772     1.49000
C380        C  0.00463536  0.37045778  0.19715912     0.92100
O381        O  0.06532576  0.34919128  0.20610364    -0.81500
O382        O  0.10332219  0.41387780  0.22980622    -0.75000
Al383      Al  0.05266929  0.37539236  0.23621525     1.90100
O384        O  0.09973484  0.37008851  0.18846915    -0.74100
O385        O  0.08309968  0.44149713  0.17328109    -0.73900
O386        O  0.07503114  0.39634418  0.13752807    -0.79600
O387        O  0.04646899  0.45170965  0.19776046    -0.77800
O388        O  0.05671046  0.40009339  0.20356079    -1.13900
O389        O  0.01302783  0.42010730  0.23476570    -0.73100
C390        C  0.01754506  0.40981733  0.26462194     0.97600
C391        C  0.08741245  0.34917055  0.19264538     0.94000
Al392      Al  0.08778337  0.40521398  0.18420415     1.55600
O393        O  0.01925271  0.36460642  0.22235535    -0.77800
C394        C  0.06551683  0.45804979  0.17843565     0.98200
C395        C  0.10225944  0.39854353  0.25644592     0.93000
O396        O  0.08528205  0.38094741  0.25818574    -0.83100
O397        O  0.95494924  0.91067379  0.47449201    -0.82500
C398        C  0.94758553  0.91310961  0.12770409     0.96800
O399        O  0.96293411  0.92668370  0.10952187    -0.71600
O400        O  0.99463256  0.89707019  0.07519018    -0.75200
Al401      Al  0.97333550  0.92539585  0.06187473     1.49000
C402        C  0.00057993  0.87795634  0.05610017     0.92100
O403        O  0.94012448  0.85381817  0.04714906    -0.81500
O404        O  0.90010345  0.91684636  0.02254750    -0.75000
Al405      Al  0.95206339  0.88032728  0.01658438     1.90100
O406        O  0.90531213  0.87341916  0.06446965    -0.74100
O407        O  0.91921117  0.94539886  0.07761621    -0.73900
O408        O  0.92885672  0.90114350  0.11386003    -0.79600
O409        O  0.95525723  0.95713880  0.05234196    -0.77800
O410        O  0.94718232  0.90513327  0.04839020    -1.13900
O411        O  0.99041076  0.92655530  0.01635939    -0.73100
C412        C  0.97537967  0.92364265  0.47635339     0.97600
C413        C  0.91791477  0.85274105  0.06028386     0.94000
Al414      Al  0.91591710  0.90905351  0.06767720     1.55600
O415        O  0.98589875  0.87091923  0.03141543    -0.77800
C416        C  0.93598848  0.96263299  0.07171749     0.98200
C417        C  0.90139168  0.90138276  0.99636601     0.93000
O418        O  0.91369720  0.88507596  0.49276624    -0.83100
O419        O  0.96434321  0.11045050  0.26248797    -0.82500
C420        C  0.94494498  0.09415169  0.11716594     0.96800
O421        O  0.96152068  0.08361208  0.13654043    -0.71600
O422        O  0.99065210  0.11589971  0.16868297    -0.75200
Al423      Al  0.97165145  0.08669986  0.18358984     1.49000
C424        C  0.99523233  0.13626874  0.18579494     0.92100
O425        O  0.93338718  0.15634639  0.19787863    -0.81500
O426        O  0.89821477  0.09173449  0.22484244    -0.75000
Al427      Al  0.94816914  0.13134940  0.22798667     1.90100
O428        O  0.90030183  0.13426072  0.17973354    -0.74100
O429        O  0.91872333  0.06254922  0.17085670    -0.73900
O430        O  0.92547309  0.10556397  0.13045711    -0.79600
O431        O  0.95591453  0.05387017  0.19459266    -0.77800
O432        O  0.94440724  0.10553927  0.19698516    -1.13900
O433        O  0.98910473  0.08726736  0.22813027    -0.73100
C434        C  0.98522974  0.09875999  0.25716274     0.97600
C435        C  0.91152783  0.15580270  0.18404334     0.94000
Al436      Al  0.91328869  0.09901707  0.17850996     1.55600
O437        O  0.98055841  0.14320423  0.21064183    -0.77800
C438        C  0.93688899  0.04668874  0.17606190     0.98200
C439        C  0.89989023  0.10676695  0.25149690     0.93000
O440        O  0.91664872  0.12458089  0.25238570    -0.83100
O441        O  0.86919409  0.66618810  0.12977156    -0.82500
C442        C  0.83720604  0.71255777  0.50794465     0.96800
O443        O  0.85004745  0.68478747  0.01179960    -0.71600
O444        O  0.87967083  0.65767175  0.05676662    -0.75200
Al445      Al  0.84415332  0.66683255  0.05627814     1.49000
C446        C  0.89986417  0.67003685  0.06376879     0.92100
O447        O  0.87996758  0.73569173  0.09953713    -0.81500
O448        O  0.82343744  0.73611219  0.11899272    -0.75000
Al449      Al  0.87201025  0.70065038  0.11135131     1.90100
O450        O  0.85068672  0.74729125  0.06091051    -0.74100
O451        O  0.79465901  0.70164050  0.07918223    -0.73900
O452        O  0.82278896  0.71673164  0.02264779    -0.79600
O453        O  0.80799993  0.66849234  0.04810825    -0.77800
O454        O  0.84680436  0.69682046  0.08005679    -1.13900
O455        O  0.83860892  0.64651660  0.09942263    -0.73100
C456        C  0.85395434  0.64725422  0.12569556     0.97600
C457        C  0.87111747  0.75176310  0.07757096     0.94000
Al458      Al  0.82461101  0.72282394  0.07155971     1.55600
O459        O  0.89829187  0.69155613  0.07919766    -0.77800
C460        C  0.79009779  0.68356925  0.05716228     0.98200
C461        C  0.83721367  0.73172525  0.14585853     0.93000
O462        O  0.84953974  0.71079953  0.14771630    -0.83100
O463        O  0.63415456  0.66315819  0.37578811    -0.82500
C464        C  0.65908271  0.69978355  0.00302085     0.96800
O465        O  0.65108075  0.67980654  0.49430509    -0.71600
O466        O  0.62319243  0.65195759  0.44723481    -0.75200
Al467      Al  0.65866717  0.66253515  0.44949543     1.49000
C468        C  0.60294847  0.66481592  0.44192034     0.92100
O469        O  0.62184574  0.73166742  0.40835393    -0.81500
O470        O  0.67900913  0.73302074  0.38931691    -0.75000
Al471      Al  0.63044640  0.69707461  0.39566500     1.90100
O472        O  0.65093211  0.74336884  0.44699148    -0.74100
O473        O  0.70788155  0.69847226  0.42919644    -0.73900
O474        O  0.67869581  0.71187952  0.48486963    -0.79600
O475        O  0.69501594  0.66506820  0.46006502    -0.77800
O476        O  0.65569051  0.69299256  0.42671516    -1.13900
O477        O  0.66565190  0.64378212  0.40496758    -0.73100
C478        C  0.65080403  0.64528762  0.37797825     0.97600
C479        C  0.63058874  0.74782375  0.43009419     0.94000
Al480      Al  0.67736586  0.71907820  0.43633226     1.55600
O481        O  0.60447178  0.68682597  0.42778806    -0.77800
C482        C  0.71271884  0.68095706  0.45211507     0.98200
C483        C  0.66582752  0.72904668  0.36180247     0.93000
O484        O  0.65241942  0.70878709  0.35935550    -0.83100
O485        O  0.41482015  0.88322264  0.26249386    -0.82500
C486        C  0.44935157  0.91086631  0.13067902     0.96800
O487        O  0.43160028  0.89596828  0.14229887    -0.71600
O488        O  0.40680576  0.86666093  0.19098617    -0.75200
Al489      Al  0.41259193  0.90303157  0.18555797     1.49000
C490        C  0.42059190  0.84789768  0.20062437     0.92100
O491        O  0.48344176  0.87717534  0.23086880    -0.81500
O492        O  0.47794433  0.93607289  0.24487842    -0.75000
Al493      Al  0.44862627  0.88218748  0.24351338     1.90100
O494        O  0.49213858  0.90672182  0.19031741    -0.74100
O495        O  0.44011956  0.95824889  0.20340678    -0.73900
O496        O  0.45847642  0.92887132  0.14934395    -0.79600
O497        O  0.41032539  0.93894605  0.17252802    -0.77800
O498        O  0.44208608  0.90528164  0.20952845    -1.13900
O499        O  0.39199328  0.90929266  0.22793773    -0.73100
C500        C  0.39477257  0.89644137  0.25670352     0.97600
C501        C  0.49849387  0.88708951  0.20837496     0.94000
Al502      Al  0.46481661  0.93045810  0.19831147     1.55600
O503        O  0.44168447  0.85232285  0.21542289    -0.77800
C504        C  0.42197193  0.95951696  0.18102533     0.98200
C505        C  0.47570512  0.92300187  0.27298793     0.93000
O506        O  0.45691773  0.90786511  0.27686155    -0.83100
O507        O  0.42772765  0.11206963  0.48681553    -0.82500
C508        C  0.45267656  0.09020274  0.13329110     0.96800
O509        O  0.42886720  0.09234130  0.12608195    -0.71600
O510        O  0.41216510  0.13587079  0.09462109    -0.75200
Al511      Al  0.41114482  0.10006423  0.08148190     1.49000
C512        C  0.41398080  0.15512889  0.07405540     0.92100
O513        O  0.47088917  0.14320843  0.04539743    -0.81500
O514        O  0.46723458  0.06792778  0.01790860    -0.75000
Al515      Al  0.44300886  0.12652884  0.02233639     1.90100
O516        O  0.49271720  0.10705247  0.05238604    -0.74100
O517        O  0.44695310  0.05255875  0.08067320    -0.73900
O518        O  0.46941016  0.09447311  0.11008170    -0.79600
O519        O  0.40657571  0.06339193  0.07411890    -0.77800
O520        O  0.43995423  0.10250221  0.05591131    -1.13900
O521        O  0.38828484  0.10663216  0.04001574    -0.73100
C522        C  0.39331137  0.10864328  0.00682472     0.97600
C523        C  0.49191179  0.13155895  0.04996816     0.94000
Al524      Al  0.46665254  0.08199560  0.06436911     1.55600
O525        O  0.42153165  0.15207851  0.04273566    -0.77800
C526        C  0.42339186  0.04736617  0.08461536     0.98200
C527        C  0.48895459  0.09038817  0.47875633     0.93000
O528        O  0.47715533  0.11166104  0.48130674    -0.83100
O529        O  0.35044561  0.17519087  0.39143092    -0.82500
C530        C  0.32878430  0.20472370  0.25114291     0.96800
O531        O  0.33685557  0.18226593  0.25966839    -0.71600
O532        O  0.37945914  0.17164084  0.29568270    -0.75200
Al533      Al  0.34332314  0.16613493  0.30528610     1.49000
C534        C  0.39646205  0.17581493  0.31858569     0.92100
O535        O  0.37280496  0.23329366  0.33802252    -0.81500
O536        O  0.30028701  0.21840618  0.36660022    -0.75000
Al537      Al  0.36084442  0.20378696  0.36367554     1.90100
O538        O  0.33435024  0.24909348  0.32784394    -0.74100
O539        O  0.28858534  0.19309151  0.30574443    -0.73900
O540        O  0.32311730  0.22155459  0.27362845    -0.79600
O541        O  0.30792341  0.15524757  0.30726210    -0.77800
O542        O  0.33892196  0.19565484  0.32937443    -1.13900
O543        O  0.35067255  0.14546420  0.34919090    -0.73100
C544        C  0.35200674  0.15161285  0.38216658     0.97600
C545        C  0.35851305  0.25225776  0.32949406     0.94000
Al546      Al  0.31366407  0.21824723  0.31965946     1.55600
O547        O  0.39001981  0.18539749  0.34771834    -0.77800
C548        C  0.28892355  0.16915905  0.29834949     0.98200
C549        C  0.31444743  0.22785631  0.39029378     0.93000
O550        O  0.33831168  0.22451558  0.38979290    -0.83100
O551        O  0.14811853  0.17178016  0.10664435    -0.82500
C552        C  0.16354238  0.21275201  0.24283111     0.96800
O553        O  0.14969296  0.19305990  0.23647869    -0.71600
O554        O  0.11276760  0.17673413  0.19735504    -0.75200
Al555      Al  0.14897124  0.17123533  0.19497145     1.49000
C556        C  0.09758063  0.17740243  0.17189817     0.92100
O557        O  0.12216130  0.23233381  0.15100165    -0.81500
O558        O  0.19347282  0.22231075  0.12328725    -0.75000
Al559      Al  0.13538666  0.20187947  0.12876102     1.90100
O560        O  0.16003015  0.24840235  0.16757426    -0.74100
O561        O  0.20814855  0.19217254  0.18072144    -0.73900
O562        O  0.17786291  0.22228336  0.21967017    -0.79600
O563        O  0.18365770  0.16127131  0.20331693    -0.77800
O564        O  0.15631784  0.19701458  0.16525382    -1.13900
O565        O  0.14630716  0.14610002  0.15454972    -0.73100
C566        C  0.14670586  0.14918824  0.12052123     0.97600
C567        C  0.13584698  0.25081992  0.16341458     0.94000
Al568      Al  0.18266106  0.21901224  0.17191008     1.55600
O569        O  0.10602143  0.18324065  0.14212666    -0.77800
C570        C  0.20530499  0.17223931  0.20059613     0.98200
C571        C  0.17762945  0.23186088  0.10168982     0.93000
O572        O  0.15550124  0.22289740  0.10088608    -0.83100
O573        O  0.54355147  0.90800075  0.02399194    -0.82500
C574        C  0.55273381  0.91186248  0.37496850     0.96800
O575        O  0.54028139  0.92639685  0.39535317    -0.71600
O576        O  0.50927485  0.89879756  0.43322880    -0.75200
Al577      Al  0.53306912  0.92540967  0.44373892     1.49000
C578        C  0.50343580  0.87963580  0.45249847     0.92100
O579        O  0.56314264  0.85166259  0.45735078    -0.81500
O580        O  0.60723168  0.91277542  0.47397004    -0.75000
Al581      Al  0.55362025  0.87923930  0.48748311     1.90100
O582        O  0.59720773  0.86956216  0.43410016    -0.74100
O583        O  0.58659179  0.94262861  0.42022966    -0.73900
O584        O  0.57163180  0.89846439  0.38603888    -0.79600
O585        O  0.55386499  0.95539429  0.45178653    -0.77800
O586        O  0.55827107  0.90344977  0.45429134    -1.13900
O587        O  0.51881730  0.92816997  0.48958746    -0.73100
C588        C  0.52340658  0.92130947  0.02093056     0.97600
C589        C  0.58448006  0.84946554  0.44196447     0.94000
Al590      Al  0.58830733  0.90570920  0.43085563     1.55600
O591        O  0.51885080  0.87119171  0.47552263    -0.77800
C592        C  0.57113954  0.96046718  0.42907982     0.98200
C593        C  0.60584757  0.89854375  0.50161945     0.93000
O594        O  0.58745499  0.88681799  0.00812103    -0.83100
O595        O  0.51537190  0.10170861  0.24499616    -0.82500
C596        C  0.55700943  0.10132436  0.37756199     0.96800
O597        O  0.53584112  0.10563652  0.36254114    -0.71600
O598        O  0.50025365  0.11396508  0.31644692    -0.75200
Al599      Al  0.52500830  0.08801146  0.32233259     1.49000
C600        C  0.50005180  0.13664592  0.30453344     0.92100
O601        O  0.56828456  0.14857613  0.27115564    -0.81500
O602        O  0.59724447  0.09629790  0.26305219    -0.75000
Al603      Al  0.54271495  0.12314386  0.26095745     1.90100
O604        O  0.59003031  0.13223797  0.31560253    -0.74100
O605        O  0.58056584  0.05822544  0.30975606    -0.73900
O606        O  0.57684133  0.09527051  0.36031200    -0.79600
O607        O  0.54294074  0.05836809  0.33543946    -0.77800
O608        O  0.55042564  0.10215248  0.29731429    -1.13900
O609        O  0.51136111  0.06947354  0.28362971    -0.73100
C610        C  0.50507474  0.08059852  0.25512479     0.97600
C611        C  0.58438756  0.15118266  0.29582900     0.94000
Al612      Al  0.58332183  0.09615601  0.31043772     1.55600
O613        O  0.51892323  0.14492461  0.28671228    -0.77800
C614        C  0.56388782  0.04711860  0.32944211     0.98200
C615        C  0.58828958  0.10005507  0.23236174     0.93000
O616        O  0.56480787  0.10552065  0.22853725    -0.83100
O617        O  0.87075532  0.34310182  0.12236397    -0.82500
C618        C  0.83694766  0.30042099  0.24690700     0.96800
O619        O  0.85276010  0.31838737  0.23861034    -0.71600
O620        O  0.88481097  0.34452012  0.19527227    -0.75200
Al621      Al  0.84823358  0.34105753  0.19769584     1.49000
C622        C  0.90239397  0.32965893  0.18462445     0.92100
O623        O  0.87070880  0.27118893  0.14310358    -0.81500
O624        O  0.81520970  0.28078514  0.12867610    -0.75000
Al625      Al  0.86842155  0.30774857  0.13599770     1.90100
O626        O  0.84167939  0.26179147  0.18347560    -0.74100
O627        O  0.79303271  0.31734939  0.17270529    -0.73900
O628        O  0.81871405  0.29444466  0.22671940    -0.79600
O629        O  0.81216450  0.34459873  0.20825037    -0.77800
O630        O  0.84524299  0.31324510  0.16988098    -1.13900
O631        O  0.84476692  0.36520166  0.15768183    -0.73100
C632        C  0.85858252  0.36363333  0.12967648     0.97600
C633        C  0.86084232  0.25531665  0.16478445     0.94000
Al634      Al  0.81919670  0.29083026  0.17695291     1.55600
O635        O  0.89704254  0.31008446  0.16631092    -0.77800
C636        C  0.79159576  0.33464535  0.19667783     0.98200
C637        C  0.82812860  0.28570219  0.10117025     0.93000
O638        O  0.84334173  0.30461850  0.10092203    -0.83100
O639        O  0.64027731  0.33116079  0.38017755    -0.82500
C640        C  0.65914204  0.29670483  0.24067958     0.96800
O641        O  0.65204625  0.31986938  0.24756805    -0.71600
O642        O  0.61114678  0.33549018  0.28523281    -0.75200
Al643      Al  0.64765982  0.33788155  0.29309469     1.49000
C644        C  0.59444626  0.33390841  0.30931774     0.92100
O645        O  0.61289965  0.27405183  0.32915219    -0.81500
O646        O  0.68583140  0.28345756  0.35857020    -0.75000
Al647      Al  0.62735555  0.30309159  0.35390047     1.90100
O648        O  0.65055249  0.25594626  0.31854710    -0.74100
O649        O  0.70117192  0.30742316  0.29825648    -0.73900
O650        O  0.66561769  0.28117858  0.26447052    -0.79600
O651        O  0.68364771  0.34604666  0.29338905    -0.77800
O652        O  0.64998492  0.30882273  0.31902902    -1.13900
O653        O  0.64270483  0.36000641  0.33632742    -0.73100
C654        C  0.64125870  0.35458235  0.36965633     0.97600
C655        C  0.62623523  0.25432966  0.32059692     0.94000
Al656      Al  0.67382201  0.28446185  0.31097423     1.55600
O657        O  0.60027655  0.32388584  0.33827866    -0.77800
C658        C  0.70242834  0.33089043  0.28859478     0.98200
C659        C  0.67052659  0.27426247  0.38133092     0.93000
O660        O  0.64730743  0.28053184  0.38080588    -0.83100
O661        O  0.46085346  0.59397256  0.02168283    -0.82500
C662        C  0.45451931  0.59255641  0.37751443     0.96800
O663        O  0.46510050  0.57500109  0.39548421    -0.71600
O664        O  0.49692850  0.59806547  0.43657381    -0.75200
Al665      Al  0.47155581  0.57245236  0.44409116     1.49000
C666        C  0.50317629  0.61637383  0.45672947     0.92100
O667        O  0.44576316  0.64741122  0.46215438    -0.81500
O668        O  0.39729060  0.58814454  0.47485708    -0.75000
Al669      Al  0.45244061  0.61794610  0.49048698     1.90100
O670        O  0.41039070  0.63242623  0.43864245    -0.74100
O671        O  0.41761249  0.56019233  0.41773450    -0.73900
O672        O  0.43563414  0.60557996  0.38932093    -0.79600
O673        O  0.44919570  0.54283639  0.44735837    -0.77800
O674        O  0.44715970  0.59543233  0.45587757    -1.13900
O675        O  0.48476214  0.56688037  0.49133704    -0.73100
C676        C  0.48094117  0.58058972  0.01978307     0.97600
C677        C  0.42451965  0.65119985  0.44744049     0.94000
Al678      Al  0.41747418  0.59629031  0.43224350     1.55600
O679        O  0.48796677  0.62423663  0.48043873    -0.77800
C680        C  0.43193495  0.54078935  0.42380194     0.98200
C681        C  0.39903535  0.60188260  0.50297916     0.93000
O682        O  0.41885504  0.61780282  0.00545204    -0.83100
O683        O  0.45859319  0.40064355  0.22624650    -0.82500
C684        C  0.43618376  0.41442681  0.37003101     0.96800
O685        O  0.45291443  0.42626735  0.35198853    -0.71600
O686        O  0.48490674  0.39498030  0.32037087    -0.75200
Al687      Al  0.46469561  0.42366419  0.30505603     1.49000
C688        C  0.49115041  0.37576656  0.30157152     0.92100
O689        O  0.43007001  0.35268994  0.29007738    -0.81500
O690        O  0.39285824  0.41639128  0.26074406    -0.75000
Al691      Al  0.44369318  0.37840511  0.25989848     1.90100
O692        O  0.39510589  0.37326514  0.30500391    -0.74100
O693        O  0.41041152  0.44566195  0.31635563    -0.73900
O694        O  0.41762715  0.40237541  0.35554676    -0.79600
O695        O  0.44770369  0.45559517  0.29331401    -0.77800
O696        O  0.43842736  0.40382945  0.29074760    -1.13900
O697        O  0.48328751  0.42357414  0.26064061    -0.73100
C698        C  0.47974040  0.41162538  0.23178795     0.97600
C699        C  0.40758221  0.35226796  0.30213261     0.94000
Al700      Al  0.40658229  0.40907419  0.30759849     1.55600
O701        O  0.47670956  0.36840758  0.27684245    -0.77800
C702        C  0.42817543  0.46206265  0.31160779     0.98200
C703        C  0.39546081  0.40120426  0.23440754     0.93000
O704        O  0.41208591  0.38327472  0.23496893    -0.83100
C705        C  0.45235117  0.49006196  0.35383567    -0.21000
C706        C  0.42901090  0.48480679  0.33663103    -0.07600
C707        C  0.40653431  0.49715325  0.34970151     0.13300
C708        C  0.40802945  0.51388362  0.37935376    -0.21100
C709        C  0.43133838  0.51880282  0.39718502    -0.07600
C710        C  0.45396884  0.50672173  0.38347106     0.13300
C711        C  0.48043874  0.51210041  0.39784715    -0.24400
H712        H  0.46962910  0.48050185  0.34445863     0.14500
H713        H  0.39074429  0.52361619  0.38839628     0.14600
C714        C  0.38090493  0.49338381  0.33190617    -0.24400
H715        H  0.49500255  0.49852829  0.38682997     0.04800
H716        H  0.48087649  0.50990233  0.42696949     0.08000
H717        H  0.48659761  0.53193620  0.39021310     0.08000
H718        H  0.37418143  0.47303245  0.33515607     0.08000
H719        H  0.38264125  0.49813580  0.30326425     0.08000
H720        H  0.36590031  0.50619700  0.34347440     0.04800
C721        C  0.55618338  0.35396461  0.33697210    -0.21000
C722        C  0.56807725  0.34460504  0.30587454    -0.07600
C723        C  0.55413743  0.34472595  0.27391211     0.13300
C724        C  0.52873618  0.35401301  0.27401077    -0.21100
C725        C  0.51694019  0.36367449  0.30504279    -0.07600
C726        C  0.53097468  0.36360459  0.33701665     0.13300
C727        C  0.51952997  0.37304763  0.37146438    -0.24400
H728        H  0.56685966  0.35400734  0.36160089     0.14500
H729        H  0.51825464  0.35434506  0.24929015     0.14600
C730        C  0.56561510  0.33468951  0.23987975    -0.24400
H731        H  0.53274305  0.36989262  0.39413776     0.04800
H732        H  0.50146462  0.36229220  0.37715514     0.08000
H733        H  0.51558145  0.39423177  0.37002869     0.08000
H734        H  0.57166999  0.31413616  0.24342125     0.08000
H735        H  0.58247528  0.34673494  0.23217843     0.08000
H736        H  0.55163367  0.33545506  0.21771567     0.04800
C737        C  0.72104654  0.33449908  0.22821511    -0.21000
C738        C  0.72417996  0.33863575  0.26482699    -0.07600
C739        C  0.74858558  0.34585147  0.27722934     0.13300
C740        C  0.76938324  0.34752626  0.25308081    -0.21100
C741        C  0.76711293  0.33969925  0.21721506    -0.07600
C742        C  0.74218573  0.33389281  0.20453686     0.13300
C743        C  0.73763300  0.32679760  0.16637395    -0.24400
H744        H  0.70201019  0.33010423  0.21842744     0.14500
H745        H  0.78802252  0.35325008  0.26307929     0.14600
C746        C  0.75275259  0.35106326  0.31599518    -0.24400
H747        H  0.71682204  0.32452217  0.16062357     0.04800
H748        H  0.74706890  0.30801305  0.16012972     0.08000
H749        H  0.74538332  0.34231306  0.14877693     0.08000
H750        H  0.74831680  0.33326166  0.33164483     0.08000
H751        H  0.73993464  0.36707212  0.32478074     0.08000
H752        H  0.77292590  0.35682991  0.32151207     0.04800
C753        C  0.58014448  0.19921795  0.29612066    -0.21000
C754        C  0.59575874  0.17724929  0.30215286    -0.07600
C755        C  0.62120812  0.18104353  0.31441140     0.13300
C756        C  0.62998952  0.20638985  0.32031564    -0.21100
C757        C  0.61440604  0.22835388  0.31463790    -0.07600
C758        C  0.58902692  0.22466845  0.30237485     0.13300
C759        C  0.57137825  0.24727924  0.29504070    -0.24400
H760        H  0.56062437  0.19643581  0.28687715     0.14500
H761        H  0.64960617  0.20891249  0.32932561     0.14600
C762        C  0.64040849  0.15949188  0.32065893    -0.24400
H763        H  0.55265233  0.24076704  0.28411245     0.04800
H764        H  0.58039062  0.26063254  0.27542329     0.08000
H765        H  0.56735936  0.25797238  0.31995795     0.08000
H766        H  0.63370541  0.13990531  0.31339133     0.08000
H767        H  0.64584850  0.15915841  0.34909320     0.08000
H768        H  0.65795188  0.16329456  0.30455850     0.04800
C769        C  0.59246602  0.99379685  0.38949183    -0.21000
C770        C  0.56980031  0.98426470  0.40591589    -0.07600
C771        C  0.54588435  0.99430526  0.39399832     0.13300
C772        C  0.54543018  0.01189045  0.36571438    -0.21100
C773        C  0.56783775  0.02260860  0.35052632    -0.07600
C774        C  0.59182390  0.01343791  0.36292252     0.13300
C775        C  0.61664073  0.02455605  0.34895130    -0.24400
H776        H  0.61084231  0.98600455  0.39778582     0.14500
H777        H  0.52681074  0.01827208  0.35624756     0.14600
C778        C  0.52008669  0.98662626  0.40937373    -0.24400
H779        H  0.63358716  0.01505542  0.36124990     0.04800
H780        H  0.61763015  0.04567733  0.35491716     0.08000
H781        H  0.61780861  0.02161340  0.31985374     0.08000
H782        H  0.52030770  0.98712160  0.43873085     0.08000
H783        H  0.51429216  0.96733488  0.39937292     0.08000
H784        H  0.50465141  0.00025931  0.40113049     0.04800
C785        C  0.43737016  0.16010509  0.34402913    -0.21000
C786        C  0.42395007  0.16819295  0.31363747    -0.07600
C787        C  0.43724696  0.16893950  0.28080030     0.13300
C788        C  0.46320731  0.16101614  0.27919461    -0.21100
C789        C  0.47603393  0.15172334  0.30938692    -0.07600
C790        C  0.46290726  0.15151809  0.34231464     0.13300
C791        C  0.47558930  0.14195889  0.37587828    -0.24400
H792        H  0.42744984  0.15949742  0.36935221     0.14500
H793        H  0.47305288  0.16054632  0.25382319     0.14600
C794        C  0.42447752  0.17841966  0.24757183    -0.24400
H795        H  0.46320414  0.14508521  0.39954099     0.04800
H796        H  0.49390607  0.15259565  0.38007400     0.08000
H797        H  0.47946633  0.12078174  0.37433674     0.08000
H798        H  0.41826193  0.19881542  0.25156050     0.08000
H799        H  0.40773146  0.16591118  0.24118268     0.08000
H800        H  0.43776420  0.17804017  0.22445605     0.04800
C801        C  0.24272688  0.15977143  0.28638854    -0.21000
C802        C  0.26813820  0.15927160  0.27438985    -0.07600
C803        C  0.27226440  0.15707212  0.23715085     0.13300
C804        C  0.25179761  0.16145956  0.21331218    -0.21100
C805        C  0.22641662  0.16373651  0.22539656    -0.07600
C806        C  0.22188673  0.16001676  0.26252776     0.13300
C807        C  0.19535815  0.15703026  0.27801889    -0.24400
H808        H  0.23916082  0.16071372  0.31468670     0.14500
H809        H  0.25563887  0.16237959  0.18507551     0.14600
C810        C  0.29766072  0.14918240  0.22150324    -0.24400
H811        H  0.19590049  0.15267482  0.30686551     0.04800
H812        H  0.18510610  0.14071422  0.26502481     0.08000
H813        H  0.18462356  0.17520504  0.27493032     0.08000
H814        H  0.31166832  0.14341481  0.24198185     0.08000
H815        H  0.30556996  0.16504698  0.20476481     0.08000
H816        H  0.29478686  0.13183973  0.20447997     0.04800
C817        C  0.39686979  0.28120990  0.32805203    -0.21000
C818        C  0.37025008  0.27839675  0.32275007    -0.07600
C819        C  0.35598878  0.30046681  0.31126680     0.13300
C820        C  0.36868774  0.32436506  0.30612655    -0.21100
C821        C  0.39531186  0.32689817  0.31086274    -0.07600
C822        C  0.40961205  0.30488840  0.32191517     0.13300
C823        C  0.43827497  0.30603469  0.32787305    -0.24400
H824        H  0.40804173  0.26462054  0.33678200     0.14500
H825        H  0.35780397  0.34109131  0.29712561     0.14600
C826        C  0.32761468  0.29926831  0.30319484    -0.24400
H827        H  0.44582623  0.28749055  0.33885515     0.04800
H828        H  0.44288171  0.32170577  0.34697928     0.08000
H829        H  0.44846025  0.30960682  0.30241960     0.08000
H830        H  0.31655720  0.29427214  0.32742840     0.08000
H831        H  0.32398582  0.28461700  0.28222362     0.08000
H832        H  0.32015923  0.31821412  0.29342175     0.04800
C833        C  0.38915820  0.10124402  0.43617079    -0.21000
C834        C  0.38444410  0.11008083  0.47099988    -0.07600
C835        C  0.36446555  0.12832526  0.47603965     0.13300
C836        C  0.35159597  0.13888924  0.44634821    -0.21100
C837        C  0.35854720  0.13244938  0.41118309    -0.07600
C838        C  0.37667538  0.11218644  0.40635375     0.13300
C839        C  0.38468309  0.10351822  0.36984402    -0.24400
H840        H  0.40453621  0.08735689  0.43196409     0.14500
H841        H  0.33759007  0.15417422  0.45059682     0.14600
C842        C  0.34484316  0.14001900  0.01416171    -0.24400
H843        H  0.39353575  0.11998962  0.35509766     0.04800
H844        H  0.36763996  0.09629065  0.35521653     0.08000
H845        H  0.39901638  0.08753460  0.37090504     0.08000
H846        H  0.32866081  0.15383472  0.01043910     0.08000
H847        H  0.33857804  0.12482038  0.03332014     0.08000
H848        H  0.36128069  0.15100782  0.02542579     0.04800
C849        C  0.55077575  0.07454000  0.42850696    -0.21000
C850        C  0.55641180  0.09963275  0.41574194    -0.07600
C851        C  0.54523844  0.12107268  0.43209762     0.13300
C852        C  0.52297843  0.11715754  0.45162509    -0.21100
C853        C  0.51341129  0.09181951  0.45866659    -0.07600
C854        C  0.52906212  0.07029735  0.45009622     0.13300
C855        C  0.52738215  0.06763800  0.99249038    -0.24400
H856        H  0.56067259  0.05798854  0.41707598     0.14500
H857        H  0.51311740  0.13436381  0.46109917     0.14600
C858        C  0.55411368  0.14836179  0.42405216    -0.24400
H859        H  0.54843283  0.06808683  0.98744886     0.04800
H860        H  0.52180757  0.04743879  0.99962252     0.08000
H861        H  0.52332926  0.08045622  0.01532146     0.08000
H862        H  0.53870221  0.15919285  0.41008143     0.08000
H863        H  0.57164719  0.14839976  0.40712178     0.08000
H864        H  0.55873132  0.15849546  0.44918859     0.04800
C865        C  0.49443689  0.05784521  0.20224211    -0.21000
C866        C  0.48520834  0.06999101  0.23242416    -0.07600
C867        C  0.46099198  0.08236872  0.23169282     0.13300
C868        C  0.44950688  0.08767553  0.19892763    -0.21100
C869        C  0.46174263  0.08005957  0.16758559    -0.07600
C870        C  0.48317989  0.06275305  0.16950856     0.13300
C871        C  0.49527059  0.04981619  0.13771760    -0.24400
H872        H  0.51263606  0.04758168  0.20351888     0.14500
H873        H  0.43203539  0.09911485  0.19773706     0.14600
C874        C  0.44808905  0.09102049  0.26534797    -0.24400
H875        H  0.51046684  0.03575956  0.14548164     0.04800
H876        H  0.50475353  0.06439241  0.12035571     0.08000
H877        H  0.48056120  0.03855334  0.12320058     0.08000
H878        H  0.42920947  0.10032902  0.26011910     0.08000
H879        H  0.46027362  0.10522256  0.27925312     0.08000
H880        H  0.44487192  0.07392014  0.28287408     0.04800
C881        C  0.41331189  0.97900398  0.12153114    -0.21000
C882        C  0.41773867  0.98306660  0.15814392    -0.07600
C883        C  0.41991269  0.00888004  0.17027952     0.13300
C884        C  0.41865947  0.02955528  0.14563236    -0.21100
C885        C  0.41671134  0.02529184  0.10880467    -0.07600
C886        C  0.41339574  0.99968333  0.09678932     0.13300
C887        C  0.41048060  0.99425993  0.05786381    -0.24400
H888        H  0.41108922  0.95932090  0.11183794     0.14500
H889        H  0.42033361  0.04919140  0.15523456     0.14600
C890        C  0.42354507  0.01475899  0.20900854    -0.24400
H891        H  0.40843722  0.97311477  0.05254574     0.04800
H892        H  0.42756909  0.00159141  0.04320575     0.08000
H893        H  0.39310790  0.00432404  0.04773824     0.08000
H894        H  0.44219396  0.00682835  0.21823347     0.08000
H895        H  0.40763588  0.00592692  0.22466625     0.08000
H896        H  0.42362033  0.03602657  0.21412827     0.04800
C897        C  0.50317542  0.89549741  0.31102374    -0.21000
C898        C  0.49807421  0.92046157  0.29715446    -0.07600
C899        C  0.51640870  0.94042360  0.30233820     0.13300
C900        C  0.53834368  0.93519632  0.32284995    -0.21100
C901        C  0.54215012  0.91078168  0.33912705    -0.07600
C902        C  0.52500689  0.89037818  0.33143577     0.13300
C903        C  0.52809566  0.86346474  0.34684569    -0.24400
H904        H  0.48998428  0.87960362  0.30602579     0.14500
H905        H  0.55110361  0.95111584  0.32969112     0.14600
C906        C  0.51231913  0.96759265  0.28827836    -0.24400
H907        H  0.52830794  0.84897778  0.32507140     0.04800
H908        H  0.51173017  0.85910253  0.36492188     0.08000
H909        H  0.54624078  0.86116599  0.36181380     0.08000
H910        H  0.49354562  0.97517834  0.29778509     0.08000
H911        H  0.51272010  0.96758620  0.25888823     0.08000
H912        H  0.52758589  0.98115330  0.29730600     0.04800
C913        C  0.50278933  0.89600532  0.06933161    -0.21000
C914        C  0.50256966  0.91847115  0.04781594    -0.07600
C915        C  0.48081176  0.93502949  0.04922717     0.13300
C916        C  0.46089890  0.92940681  0.07334452    -0.21100
C917        C  0.46197460  0.90781185  0.09617616    -0.07600
C918        C  0.48287367  0.89048340  0.09330142     0.13300
C919        C  0.48560448  0.86681713  0.11671622    -0.24400
H920        H  0.51872586  0.88247809  0.06766683     0.14500
H921        H  0.44530869  0.94314871  0.07643299     0.14600
C922        C  0.48726389  0.96195782  0.53402441    -0.24400
H923        H  0.48695958  0.84913950  0.09997777     0.04800
H924        H  0.46917713  0.86412624  0.13517005     0.08000
H925        H  0.50345335  0.86851315  0.13253762     0.08000
H926        H  0.48666412  0.96163352  0.50465862     0.08000
H927        H  0.50610699  0.96970592  0.54289740     0.08000
H928        H  0.47209174  0.97562525  0.54312095     0.04800
C929        C  0.57523423  0.62582102  0.44753598    -0.21000
C930        C  0.57735395  0.65302171  0.44908567    -0.07600
C931        C  0.55479661  0.66798962  0.45461887     0.13300
C932        C  0.53091995  0.65539754  0.45723899    -0.21100
C933        C  0.52880828  0.62839890  0.45338219    -0.07600
C934        C  0.55128106  0.61336148  0.44848662     0.13300
C935        C  0.55033478  0.58418314  0.44458110    -0.24400
H936        H  0.59238213  0.61417483  0.44452448     0.14500
H937        H  0.51365994  0.66676274  0.46170116     0.14600
C938        C  0.55562024  0.69704209  0.45925014    -0.24400
H939        H  0.56987078  0.57555935  0.44284880     0.04800
H940        H  0.53996227  0.57895903  0.41995537     0.08000
H941        H  0.54042419  0.57538915  0.46771933     0.08000
H942        H  0.56223021  0.70670037  0.43450473     0.08000
H943        H  0.56866733  0.70172722  0.48150193     0.08000
H944        H  0.53638980  0.70515666  0.46573820     0.04800
C945        C  0.62674180  0.79323311  0.41092841    -0.21000
C946        C  0.61795317  0.77321152  0.43315565    -0.07600
C947        C  0.59671663  0.77755757  0.45561618     0.13300
C948        C  0.58588809  0.80246414  0.45711039    -0.21100
C949        C  0.59534322  0.82308856  0.43607001    -0.07600
C950        C  0.61558105  0.81807572  0.41172557     0.13300
C951        C  0.62517602  0.83834122  0.38585888    -0.24400
H952        H  0.64244002  0.78932212  0.39270366     0.14500
H953        H  0.57017248  0.80581051  0.47549639     0.14600
C954        C  0.58504820  0.75646831  0.47830149    -0.24400
H955        H  0.63942166  0.83013684  0.36693248     0.04800
H956        H  0.63481099  0.85441429  0.40020481     0.08000
H957        H  0.60882980  0.84607416  0.37018425     0.08000
H958        H  0.59522022  0.73769269  0.47542674     0.08000
H959        H  0.56466850  0.75357586  0.47061388     0.08000
H960        H  0.56319176  0.76887670  0.98803294     0.04800
C961        C  0.76591895  0.70650897  0.51381353    -0.21000
C962        C  0.76710731  0.68412028  0.03340420    -0.07600
C963        C  0.75495596  0.66113732  0.02147801     0.13300
C964        C  0.73771608  0.66219152  0.99264090    -0.21100
C965        C  0.73597416  0.68197447  0.47647440    -0.07600
C966        C  0.74876062  0.70559434  0.48497989     0.13300
C967        C  0.74424326  0.73053271  0.46484202    -0.24400
H968        H  0.77472815  0.72497987  0.52002807     0.14500
H969        H  0.72806756  0.64447203  0.98461982     0.14600
C970        C  0.75956278  0.63548051  0.03982048    -0.24400
H971        H  0.75707961  0.74642482  0.47384362     0.04800
H972        H  0.72441128  0.73743437  0.46942933     0.08000
H973        H  0.74798443  0.72757663  0.43615707     0.08000
H974        H  0.75484604  0.63729308  0.06843639     0.08000
H975        H  0.77992957  0.62951028  0.03677848     0.08000
H976        H  0.74742638  0.61974529  0.02862577     0.04800
C977        C  0.87154914  0.18221613  0.17682799    -0.21000
C978        C  0.89855129  0.18079650  0.17509259    -0.07600
C979        C  0.91263639  0.20374354  0.16710754     0.13300
C980        C  0.89957862  0.22747483  0.16373867    -0.21100
C981        C  0.87281878  0.22921139  0.16818402    -0.07600
C982        C  0.85852379  0.20613839  0.17388409     0.13300
C983        C  0.82959793  0.20647949  0.17615280    -0.24400
H984        H  0.86054378  0.16463014  0.18137738     0.14500
H985        H  0.91052515  0.24502197  0.15829237     0.14600
C986        C  0.94136877  0.20350708  0.16115911    -0.24400
H987        H  0.82151839  0.18654688  0.17883023     0.04800
H988        H  0.82154158  0.21539501  0.15175010     0.08000
H989        H  0.82333955  0.21776972  0.19966966     0.08000
H990        H  0.94640663  0.18872827  0.14086822     0.08000
H991        H  0.95153038  0.19919593  0.18628354     0.08000
H992        H  0.94856083  0.22264604  0.15155728     0.04800
C993        C  0.03102135  0.16275068  0.20886343    -0.21000
C994        C  0.01959908  0.15041411  0.17966420    -0.07600
C995        C  0.03319202  0.14929648  0.14716493     0.13300
C996        C  0.05812698  0.15943658  0.14542820    -0.21100
C997        C  0.07028562  0.16983326  0.17546958    -0.07600
C998        C  0.05626631  0.17217567  0.20740079     0.13300
C999        C  0.06752240  0.18467705  0.23991222    -0.24400
H1000       H  0.02067652  0.16387230  0.23369505     0.14500
H1001       H  0.06866337  0.15805822  0.12064560     0.14600
C1002       C  0.02181130  0.13750333  0.11416857    -0.24400
H1003       H  0.05324252  0.18604952  0.26180469     0.04800
H1004       H  0.07401932  0.20469901  0.23332545     0.08000
H1005       H  0.08392120  0.17299592  0.24983336     0.08000
H1006       H  0.00300830  0.14670200  0.10862255     0.08000
H1007       H  0.01933888  0.11618827  0.11745510     0.08000
H1008       H  0.03434736  0.14055401  0.09060002     0.04800
C1009       C  0.87044761  0.79898103  0.08526293    -0.21000
C1010       C  0.88380817  0.77702139  0.07347389    -0.07600
C1011       C  0.90914616  0.77960720  0.06060668     0.13300
C1012       C  0.91986769  0.80451160  0.05763567    -0.21100
C1013       C  0.90622850  0.82691356  0.06811330    -0.07600
C1014       C  0.88151919  0.82384304  0.08378987    -0.15500
C1015       C  0.86689258  0.84609815  0.10030107    -0.24400
H1016       H  0.85136184  0.79651372  0.09646736     0.14500
H1017       H  0.93900404  0.80632072  0.04639918     0.14600
C1018       C  0.92520472  0.75673520  0.04895457    -0.24400
H1019       H  0.84883684  0.83938730  0.11321922     0.04800
H1020       H  0.86136167  0.86060067  0.08003839     0.08000
H1021       H  0.87888654  0.85551262  0.12090527     0.08000
H1022       H  0.94270471  0.75548689  0.06562707     0.08000
H1023       H  0.91487822  0.73793366  0.05089264     0.08000
H1024       H  0.91715723  0.76366149  0.49815428     0.04800
C1025       C  0.91399282  0.01492685  0.13730390    -0.21000
C1026       C  0.93734639  0.02268725  0.15302315    -0.07600
C1027       C  0.96039246  0.01127757  0.13980822     0.13300
C1028       C  0.95930264  0.99324747  0.11160122    -0.21100
C1029       C  0.93597022  0.98589632  0.09572054    -0.07600
C1030       C  0.91295701  0.99686877  0.10925431     0.13300
C1031       C  0.88709652  0.99018599  0.09373437    -0.24400
H1032       H  0.89620955  0.02359819  0.14652688     0.14500
H1033       H  0.97694731  0.98430279  0.10237837     0.14600
C1034       C  0.98647985  0.01836224  0.15405845    -0.24400
H1035       H  0.87152049  0.00237415  0.10513080     0.04800
H1036       H  0.88207851  0.96961722  0.09945263     0.08000
H1037       H  0.88744874  0.99349747  0.06464324     0.08000
H1038       H  0.98697109  0.01551828  0.18319395     0.08000
H1039       H  0.99104717  0.03882167  0.14727115     0.08000
H1040       H  0.00193025  0.00615830  0.14237470     0.04800
C1041       C  0.12268460  0.31828294  0.20094079    -0.21000
C1042       C  0.09963638  0.32436257  0.18399864    -0.07600
C1043       C  0.08838604  0.30648981  0.16046329     0.13300
C1044       C  0.10061892  0.28263013  0.15438664    -0.21100
C1045       C  0.12374601  0.27621415  0.17151259    -0.07600
C1046       C  0.13485879  0.29437446  0.19538918     0.13300
C1047       C  0.15894012  0.28874203  0.21623446    -0.24400
H1048       H  0.13088692  0.33218724  0.21930333     0.14500
H1049       H  0.09217218  0.26905452  0.13583062     0.14600
C1050       C  0.06390759  0.31288890  0.14108092    -0.24400
H1051       H  0.16342882  0.30449978  0.23534245     0.04800
H1052       H  0.17572579  0.28701019  0.19816703     0.08000
H1053       H  0.15634722  0.27056497  0.23171524     0.08000
H1054       H  0.06659314  0.33102291  0.12541118     0.08000
H1055       H  0.04796717  0.31564540  0.16033266     0.08000
H1056       H  0.05826162  0.29711752  0.12260695     0.04800
C1057       C  0.94606279  0.33599639  0.16058195    -0.21000
C1058       C  0.92952042  0.33684005  0.19008446    -0.07600
C1059       C  0.93865644  0.34669923  0.22258098     0.13300
C1060       C  0.96388394  0.35624614  0.22434070    -0.21100
C1061       C  0.97979496  0.35695141  0.19420479    -0.07600
C1062       C  0.97100692  0.34629295  0.16216739     0.13300
C1063       C  0.98783795  0.34579304  0.12975736    -0.24400
H1064       H  0.93898406  0.32844549  0.13564604     0.14500
H1065       H  0.97083385  0.36432848  0.24899348     0.14600
C1066       C  0.92202513  0.34712920  0.25539084    -0.24400
H1067       H  0.97833536  0.33543776  0.10760586     0.04800
H1068       H  0.00611506  0.33559076  0.13574735     0.08000
H1069       H  0.99202698  0.36599723  0.12107370     0.08000
H1070       H  0.91491100  0.32719112  0.26130129     0.08000
H1071       H  0.90544430  0.36036655  0.25148347     0.08000
H1072       H  0.93282596  0.35416068  0.27884542     0.04800
C1073       C  0.04352717  0.51354880  0.11671340    -0.21000
C1074       C  0.06615853  0.51879289  0.09736090    -0.07600
C1075       C  0.08903363  0.50617995  0.10801675     0.13300
C1076       C  0.08849498  0.48828223  0.13654513    -0.21100
C1077       C  0.06563245  0.48213135  0.15520115    -0.07600
C1078       C  0.04285390  0.49552840  0.14513316     0.13300
C1079       C  0.01737209  0.49048172  0.16298412    -0.24400
H1080       H  0.02610749  0.52386212  0.10971274     0.14500
H1081       H  0.10607444  0.47818509  0.14337792     0.14600
C1082       C  0.11395225  0.51068815  0.08840328    -0.24400
H1083       H  0.00220470  0.50392896  0.15336728     0.04800
H1084       H  0.01912932  0.49323481  0.19201015     0.08000
H1085       H  0.01084934  0.47040977  0.15721193     0.08000
H1086       H  0.12036930  0.53113029  0.09160329     0.08000
H1087       H  0.11128467  0.50642630  0.05981557     0.08000
H1088       H  0.12954417  0.49794228  0.09847993     0.04800
C1089       C  0.94741329  0.67460986  0.06087901    -0.21000
C1090       C  0.92559296  0.65861164  0.05670874    -0.07600
C1091       C  0.92916636  0.63176287  0.04926783     0.13300
C1092       C  0.95407564  0.62152005  0.04942679    -0.21100
C1093       C  0.97556005  0.63739995  0.05478139    -0.07600
C1094       C  0.97238631  0.66440783  0.05912323     0.13300
C1095       C  0.99517169  0.68239471  0.06240510    -0.24400
H1096       H  0.94497609  0.69524022  0.06570565     0.14500
H1097       H  0.95694063  0.60096526  0.04423814     0.14600
C1098       C  0.90726144  0.61357444  0.04067025    -0.24400
H1099       H  0.98911682  0.70286399  0.06672925     0.04800
H1100       H  0.00685245  0.68183497  0.03774231     0.08000
H1101       H  0.00730774  0.67641037  0.08509024     0.08000
H1102       H  0.89693367  0.62077217  0.01689042     0.08000
H1103       H  0.89376425  0.61207239  0.06332447     0.08000
H1104       H  0.91409711  0.59357739  0.03473575     0.04800
C1105       C  0.37578476  0.39663604  0.13829438    -0.21000
C1106       C  0.35232277  0.38345750  0.14216271    -0.07600
C1107       C  0.33995732  0.38405231  0.17571183     0.13300
C1108       C  0.35320777  0.39356017  0.20553522    -0.21100
C1109       C  0.37860664  0.40252459  0.20256557    -0.07600
C1110       C  0.38928590  0.40570515  0.16814754     0.13300
C1111       C  0.41583911  0.41673595  0.16296801    -0.24400
H1112       H  0.38539725  0.39634661  0.11274473     0.14500
H1113       H  0.34463290  0.39138143  0.23161944     0.14600
C1114       C  0.31360663  0.37253339  0.18111473    -0.24400
H1115       H  0.42062535  0.41932165  0.13444777     0.04800
H1116       H  0.43014302  0.40327469  0.17431611     0.08000
H1117       H  0.41728045  0.43598280  0.17609299     0.08000
H1118       H  0.31476048  0.35567175  0.19951638     0.08000
H1119       H  0.30498762  0.36592885  0.15580861     0.08000
H1120       H  0.30066428  0.38744889  0.19270342     0.04800
C1121       C  0.31281227  0.27169404  0.41239845    -0.21000
C1122       C  0.30529222  0.24555157  0.41732714    -0.07600
C1123       C  0.30306471  0.23550456  0.45160645     0.13300
C1124       C  0.31263646  0.25004416  0.47964117    -0.21100
C1125       C  0.32406305  0.27477389  0.47428470    -0.07600
C1126       C  0.32237855  0.28654967  0.44066238     0.13300
C1127       C  0.33214931  0.31369947  0.43394884    -0.24400
H1128       H  0.31440017  0.27929278  0.38571952     0.14500
H1129       H  0.31187980  0.24145616  0.50586124     0.14600
C1130       C  0.29272386  0.20847129  0.45801562    -0.24400
H1131       H  0.33019925  0.31933940  0.40563654     0.04800
H1132       H  0.35279071  0.31499489  0.44114625     0.08000
H1133       H  0.32091888  0.32775630  0.45003680     0.08000
H1134       H  0.30491609  0.19386380  0.44435162     0.08000
H1135       H  0.27281147  0.20717183  0.44766465     0.08000
H1136       H  0.29225720  0.20351410  0.48668765     0.04800
C1137       C  0.34698189  0.24362654  0.17588745    -0.21000
C1138       C  0.32324468  0.25556275  0.16763630    -0.07600
C1139       C  0.30034303  0.24436381  0.18046983     0.13300
C1140       C  0.30217672  0.22345286  0.20450758    -0.21100
C1141       C  0.32633631  0.21342394  0.21474022    -0.07600
C1142       C  0.34862678  0.22224341  0.19813268     0.13300
C1143       C  0.37449732  0.21088179  0.20688103    -0.24400
H1144       H  0.36485279  0.25122075  0.16529581     0.14500
H1145       H  0.28499755  0.21659127  0.21800692     0.14600
C1146       C  0.27447578  0.25540724  0.17105767    -0.24400
H1147       H  0.39021842  0.22002090  0.19116821     0.04800
H1148       H  0.37439861  0.18970872  0.20110489     0.08000
H1149       H  0.37859161  0.21400539  0.23537388     0.08000
H1150       H  0.27137504  0.25381756  0.14206260     0.08000
H1151       H  0.27352571  0.27618174  0.17895957     0.08000
H1152       H  0.25863618  0.24477366  0.18466835     0.04800
C1153       C  0.37499237  0.21133447  0.10903518    -0.21000
C1154       C  0.38820899  0.23285603  0.09463500    -0.07600
C1155       C  0.41177765  0.22874117  0.07695382     0.13300
C1156       C  0.42053403  0.20305602  0.07222094    -0.21100
C1157       C  0.40654087  0.18156145  0.08546294    -0.07600
C1158       C  0.38408122  0.18592446  0.10551865     0.13300
C1159       C  0.36855658  0.16389875  0.12128208    -0.24400
H1160       H  0.35647831  0.21415699  0.12150220     0.14500
H1161       H  0.43796426  0.19964895  0.05708104     0.14600
C1162       C  0.42678968  0.25103838  0.06117227    -0.24400
H1163       H  0.35110627  0.17101479  0.13527883     0.04800
H1164       H  0.38034791  0.15317302  0.14094492     0.08000
H1165       H  0.36225801  0.15043678  0.10004445     0.08000
H1166       H  0.43279879  0.26446856  0.08257046     0.08000
H1167       H  0.41474219  0.26172694  0.04174536     0.08000
H1168       H  0.44438657  0.24422315  0.04726784     0.04800
C1169       C  0.23715737  0.34996352  0.98554435    -0.21000
C1170       C  0.23224657  0.32878969  0.47267419    -0.07600
C1171       C  0.24868082  0.30678643  0.47193125     0.13300
C1172       C  0.26611015  0.30256853  0.49971403    -0.21100
C1173       C  0.27062485  0.32550085  0.01618805    -0.07600
C1174       C  0.25486022  0.34773421  0.01383945     0.13300
C1175       C  0.25558670  0.36833212  0.04207456    -0.24400
H1176       H  0.22417697  0.36643978  0.98530848     0.14500
H1177       H  0.27712583  0.28484482  0.49947077     0.14600
C1178       C  0.24811575  0.28700603  0.44250456    -0.24400
H1179       H  0.24106872  0.38376250  0.03726886     0.04800
H1180       H  0.27481046  0.37770464  0.04254414     0.08000
H1181       H  0.25150523  0.35939160  0.06834299     0.08000
H1182       H  0.25045385  0.29681241  0.41641987     0.08000
H1183       H  0.23012453  0.27559262  0.44347142     0.08000
H1184       H  0.26379663  0.27265110  0.44508322     0.04800
C1185       C  0.12420133  0.40053329  0.35131261    -0.21000
C1186       C  0.14239040  0.38032058  0.35103550    -0.07600
C1187       C  0.15221545  0.37210302  0.31780927     0.13300
C1188       C  0.14129808  0.38161234  0.28612053    -0.21100
C1189       C  0.12077772  0.39936733  0.28655520    -0.07600
C1190       C  0.11326988  0.41004976  0.31953456     0.13300
C1191       C  0.09220375  0.43006355  0.32130718    -0.24400
H1192       H  0.11647163  0.40694298  0.37648411     0.14500
H1193       H  0.14712603  0.37308166  0.26109692     0.14600
C1194       C  0.17273222  0.35151676  0.31508573    -0.24400
H1195       H  0.08863734  0.43660051  0.34892232     0.04800
H1196       H  0.07403308  0.42182651  0.31088103     0.08000
H1197       H  0.09773017  0.44730703  0.30516755     0.08000
H1198       H  0.16488422  0.33407400  0.30157549     0.08000
H1199       H  0.18018320  0.34554028  0.34140241     0.08000
H1200       H  0.18918723  0.35920229  0.29938648     0.04800
C1201       C  0.20031404  0.28676598  0.04115025    -0.21000
C1202       C  0.17620101  0.29877581  0.03451070    -0.07600
C1203       C  0.15552361  0.29328597  0.05719737     0.13300
C1204       C  0.15811455  0.27293898  0.08149626    -0.21100
C1205       C  0.18053536  0.25729790  0.08311444    -0.07600
C1206       C  0.20257215  0.26557590  0.06473368     0.13300
C1207       C  0.22756189  0.25106885  0.06772134    -0.24400
H1208       H  0.21662868  0.29173693  0.02446705     0.14500
H1209       H  0.14134932  0.26769294  0.09694095     0.14600
C1210       C  0.12989208  0.30670977  0.05349600    -0.24400
H1211       H  0.24280655  0.25998447  0.05088739     0.04800
H1212       H  0.22486203  0.23058208  0.05922743     0.08000
H1213       H  0.23419676  0.25137730  0.09564081     0.08000
H1214       H  0.12130654  0.30224950  0.02731149     0.08000
H1215       H  0.13250545  0.32806207  0.05612632     0.08000
H1216       H  0.11601510  0.30028942  0.07422387     0.04800
C1217       C  0.14261565  0.25393367  0.31950649    -0.21000
C1218       C  0.16636513  0.26448724  0.32997952    -0.07600
C1219       C  0.18930942  0.25494292  0.31516555     0.13300
C1220       C  0.18779296  0.23589849  0.28877502    -0.21100
C1221       C  0.16389846  0.22615892  0.27714131    -0.07600
C1222       C  0.14110210  0.23480879  0.29333105     0.13300
C1223       C  0.11518406  0.22497668  0.28185429    -0.24400
H1224       H  0.12505166  0.26067076  0.33202167     0.14500
H1225       H  0.20531631  0.22936061  0.27592877     0.14600
C1226       C  0.21513579  0.26561332  0.32586083    -0.24400
H1227       H  0.09931083  0.23407112  0.29718963     0.04800
H1228       H  0.11412796  0.20360825  0.28602754     0.08000
H1229       H  0.11221951  0.22953801  0.25337772     0.08000
H1230       H  0.21876268  0.26140553  0.35426580     0.08000
H1231       H  0.21557659  0.28699032  0.32144490     0.08000
H1232       H  0.23100845  0.25678915  0.31021904     0.04800
C1233       C  0.98810940  0.88980104  0.19839628    -0.21000
C1234       C  0.99542370  0.91399065  0.21262713    -0.07600
C1235       C  0.97969227  0.93597388  0.20666153     0.13300
C1236       C  0.95934880  0.93391361  0.18262028    -0.21100
C1237       C  0.95445633  0.91049649  0.16481594    -0.07600
C1238       C  0.96745316  0.88776226  0.17495783     0.13300
C1239       C  0.96075936  0.86180454  0.15882738    -0.24400
H1240       H  0.99886715  0.87243692  0.20516023     0.14500
H1241       H  0.94912091  0.95132935  0.17455402     0.14600
C1242       C  0.98502432  0.96192032  0.22365756    -0.24400
H1243       H  0.97283948  0.84590438  0.16975397     0.04800
H1244       H  0.96364855  0.86235688  0.12965166     0.08000
H1245       H  0.94031665  0.85712481  0.16459138     0.08000
H1246       H  0.00486743  0.96838409  0.21711805     0.08000
H1247       H  0.98267638  0.96044066  0.25283121     0.08000
H1248       H  0.97142792  0.97707990  0.21432864     0.04800
C1249       C  0.01966154  0.89151926  0.40805790    -0.21000
C1250       C  0.04165098  0.90712423  0.41012673    -0.07600
C1251       C  0.04202637  0.92771629  0.43472552     0.13300
C1252       C  0.02007944  0.93292293  0.45537203    -0.21100
C1253       C  0.99695365  0.91898964  0.45069791    -0.07600
C1254       C  0.99688219  0.89803159  0.42601253     0.13300
C1255       C  0.97294931  0.88299837  0.41642569    -0.24400
H1256       H  0.01920168  0.87624677  0.38826579     0.14500
H1257       H  0.02084702  0.94856496  0.47453069     0.14600
C1258       C  0.06520660  0.94518100  0.43747169    -0.24400
H1259       H  0.97625550  0.86975794  0.39367765     0.04800
H1260       H  0.95738072  0.89660884  0.40864193     0.08000
H1261       H  0.96676702  0.87049807  0.43875978     0.08000
H1262       H  0.06872998  0.95508476  0.41177206     0.08000
H1263       H  0.08233406  0.93340734  0.44448940     0.08000
H1264       H  0.06258023  0.96040785  0.45799224     0.04800
C1265       C  0.15304561  0.12902238  0.06125120    -0.21000
C1266       C  0.14170092  0.12733784  0.09513831    -0.07600
C1267       C  0.12026048  0.11054722  0.09945307     0.13300
C1268       C  0.10859268  0.09939320  0.06927318    -0.21100
C1269       C  0.11795511  0.10414588  0.03476669    -0.07600
C1270       C  0.14152416  0.11777717  0.03117387     0.13300
C1271       C  0.15385408  0.12315271  0.99572696    -0.24400
H1272       H  0.16967303  0.14151648  0.05753426     0.14500
H1273       H  0.09057508  0.08897151  0.07233329     0.14600
C1274       C  0.10819021  0.10610523  0.13530642    -0.24400
H1275       H  0.17372042  0.11527626  0.99561603     0.04800
H1276       H  0.15481626  0.14448344  0.99123644     0.08000
H1277       H  0.14458935  0.11263009  0.47435440     0.08000
H1278       H  0.10117162  0.12471938  0.14637190     0.08000
H1279       H  0.12262036  0.09756416  0.15353889     0.08000
H1280       H  0.09158177  0.09253855  0.13390191     0.04800
C1281       C  0.12296026  0.18330784  0.44279174    -0.21000
C1282       C  0.09621753  0.18089747  0.43873085    -0.07600
C1283       C  0.08157993  0.20349125  0.43133456     0.13300
C1284       C  0.09402648  0.22770727  0.42883628    -0.21100
C1285       C  0.12068651  0.23020494  0.43377450    -0.07600
C1286       C  0.13537668  0.20757443  0.44070885     0.13300
C1287       C  0.16419161  0.20854734  0.44488521    -0.24400
H1288       H  0.13425421  0.16605441  0.44801513     0.14500
H1289       H  0.08275222  0.24492637  0.42306881     0.14600
C1290       C  0.05299392  0.20230298  0.42485836    -0.24400
H1291       H  0.17254388  0.18882865  0.44842222     0.04800
H1292       H  0.16927444  0.22011556  0.46864858     0.08000
H1293       H  0.17311497  0.21738930  0.42090459     0.08000
H1294       H  0.04275752  0.19630795  0.44941935     0.08000
H1295       H  0.04882815  0.18827677  0.40328405     0.08000
H1296       H  0.04515755  0.22152473  0.41681574     0.04800
C1297       C  0.04831496  0.01711716  0.37404108    -0.21000
C1298       C  0.06953371  0.02151678  0.39617520    -0.07600
C1299       C  0.09226356  0.00726514  0.38975886     0.13300
C1300       C  0.09286657  0.98850658  0.36241651    -0.21100
C1301       C  0.07153580  0.98388484  0.34014910    -0.07600
C1302       C  0.04918824  0.99936977  0.34561553     0.13300
C1303       C  0.02605878  0.99794264  0.32172384    -0.24400
H1304       H  0.03118646  0.02878659  0.37782080     0.14500
H1305       H  0.11005588  0.97687751  0.35902162     0.14600
C1306       C  0.11561493  0.01110090  0.41261597    -0.24400
H1307       H  0.01183517  0.01341525  0.32784378     0.04800
H1308       H  0.01602454  0.97911968  0.32524626     0.08000
H1309       H  0.03207333  0.00061395  0.29367746     0.08000
H1310       H  0.11046991  0.00752695  0.44080973     0.08000
H1311       H  0.12303615  0.03123788  0.40959778     0.08000
H1312       H  0.13135100  0.99753416  0.40528056     0.04800
C1313       C  0.95930795  0.06790284  0.06737299    -0.21000
C1314       C  0.95085614  0.09258037  0.07903890    -0.07600
C1315       C  0.95994324  0.11492774  0.06127431     0.13300
C1316       C  0.98029167  0.11243895  0.03702718    -0.21100
C1317       C  0.99109501  0.08804028  0.02909948    -0.07600
C1318       C  0.97962767  0.06539047  0.04293660     0.13300
C1319       C  0.99068704  0.03622907  0.53036354    -0.24400
H1320       H  0.95228426  0.05064623  0.08092488     0.14500
H1321       H  0.98817471  0.12983269  0.02481279     0.14600
C1322       C  0.94942735  0.14168109  0.06859510    -0.24400
H1323       H  0.98020856  0.02040436  0.54444191     0.04800
H1324       H  0.01150324  0.03422280  0.53616145     0.08000
H1325       H  0.98755821  0.03377165  0.50147832     0.08000
H1326       H  0.96470915  0.15444132  0.07930493     0.08000
H1327       H  0.93313095  0.14135630  0.08757250     0.08000
H1328       H  0.94231481  0.15030790  0.04346617     0.04800
C1329       C  0.03154834  0.12481295  0.32716841    -0.21000
C1330       C  0.04877686  0.10408020  0.33012893    -0.07600
C1331       C  0.04713348  0.08340392  0.30576205     0.13300
C1332       C  0.02605416  0.08190571  0.28271469    -0.21100
C1333       C  0.00673488  0.10102106  0.28291116    -0.07600
C1334       C  0.01047337  0.12365084  0.30403894     0.13300
C1335       C  0.99228178  0.14655569  0.30354359    -0.24400
H1336       H  0.03281840  0.14062329  0.34607821     0.14500
H1337       H  0.02442493  0.06542394  0.26500430     0.14600
C1338       C  0.06741351  0.06253526  0.30509296    -0.24400
H1339       H  0.99860292  0.16227175  0.32169533     0.04800
H1340       H  0.97274041  0.14055254  0.31207670     0.08000
H1341       H  0.99130251  0.15503110  0.27665453     0.08000
H1342       H  0.06917600  0.05326019  0.33143889     0.08000
H1343       H  0.08622672  0.07138731  0.29800053     0.08000
H1344       H  0.06295873  0.04715824  0.28541518     0.04800
C1345       C  0.54886456  0.17234752  0.07707170    -0.21000
C1346       C  0.56658891  0.16576405  0.05020321    -0.07600
C1347       C  0.55822924  0.15046383  0.02129828     0.13300
C1348       C  0.53311067  0.14074720  0.02130139    -0.21100
C1349       C  0.51618800  0.14590696  0.04926165    -0.07600
C1350       C  0.52370508  0.16242737  0.07698331     0.13300
C1351       C  0.50564872  0.16841860  0.10717987    -0.24400
H1352       H  0.55510755  0.18407067  0.09927592     0.14500
H1353       H  0.52675357  0.12845865  0.99971557     0.14600
C1354       C  0.57530205  0.14457257  0.99005288    -0.24400
H1355       H  0.51474054  0.18134449  0.12707855     0.04800
H1356       H  0.49984826  0.15008010  0.12069644     0.08000
H1357       H  0.48823080  0.17831167  0.09687316     0.08000
H1358       H  0.59177455  0.13227929  0.99811762     0.08000
H1359       H  0.58224272  0.16309924  0.97857121     0.08000
H1360       H  0.56483757  0.13393533  0.96894320     0.04800
C1361       C  0.65834392  0.23188639  0.40494339    -0.21000
C1362       C  0.67678086  0.25214239  0.40427930    -0.07600
C1363       C  0.69620589  0.25274213  0.42995959     0.13300
C1364       C  0.69449198  0.23518610  0.45823608    -0.21100
C1365       C  0.67320670  0.21831610  0.46190981    -0.07600
C1366       C  0.65605321  0.21513314  0.43391632     0.13300
C1367       C  0.63404917  0.19607897  0.43614450    -0.24400
H1368       H  0.64367344  0.23116039  0.38477713     0.14500
H1369       H  0.70203516  0.21272023  0.95477696     0.14600
C1370       C  0.71722532  0.27292369  0.43048710    -0.24400
H1371       H  0.62218303  0.19639394  0.41172637     0.04800
H1372       H  0.62142264  0.20090109  0.45899789     0.08000
H1373       H  0.64169045  0.17607647  0.43965861     0.08000
H1374       H  0.71551651  0.28477273  0.45494677     0.08000
H1375       H  0.71666588  0.28628605  0.40745915     0.08000
H1376       H  0.73621256  0.26306854  0.43037618     0.04800
C1377       C  0.64316141  0.25158930  0.16838121    -0.21000
C1378       C  0.66794078  0.24282750  0.15888625    -0.07600
C1379       C  0.68954350  0.25675515  0.17086308     0.13300
C1380       C  0.68584164  0.27765572  0.19424553    -0.21100
C1381       C  0.66106597  0.28566039  0.20497659    -0.07600
C1382       C  0.63952126  0.27299878  0.19078543     0.13300
C1383       C  0.61271078  0.28105928  0.20125689    -0.24400
H1384       H  0.62638450  0.24151765  0.15851310     0.14500
H1385       H  0.70250330  0.28607988  0.20687788     0.14600
C1386       C  0.71646411  0.24855782  0.16113528    -0.24400
H1387       H  0.59786301  0.26913316  0.18779771     0.04800
H1388       H  0.60964051  0.30175636  0.19387826     0.08000
H1389       H  0.61004301  0.27880490  0.23030382     0.08000
H1390       H  0.71948296  0.25057069  0.13212809     0.08000
H1391       H  0.71957940  0.22798702  0.16911260     0.08000
H1392       H  0.73115504  0.26071593  0.17454895     0.04800
C1393       C  0.59516359  0.09694554  0.16676454    -0.21000
C1394       C  0.60572245  0.10120206  0.20054235    -0.07600
C1395       C  0.63098644  0.11177254  0.20244395     0.13300
C1396       C  0.64333130  0.12063865  0.17130448    -0.21100
C1397       C  0.63119440  0.11947677  0.13826764    -0.07600
C1398       C  0.60754883  0.10599120  0.13575621     0.13300
C1399       C  0.59426146  0.10318467  0.10058470    -0.24400
H1400       H  0.57612536  0.08847344  0.16479371     0.14500
H1401       H  0.66126057  0.13131761  0.17333996     0.14600
C1402       C  0.64404894  0.11658868  0.23734753    -0.24400
H1403       H  0.57621404  0.09171444  0.10295690     0.04800
H1404       H  0.60718639  0.09312469  0.08158225     0.08000
H1405       H  0.58924264  0.12261914  0.08994052     0.08000
H1406       H  0.64616937  0.09799437  0.25210050     0.08000
H1407       H  0.63249837  0.13056739  0.25301446     0.08000
H1408       H  0.66354719  0.12508153  0.23383232     0.04800
C1409       C  0.93790608  0.15002095  0.40082455    -0.21000
C1410       C  0.93030292  0.16766247  0.42693210    -0.07600
C1411       C  0.94688496  0.17358520  0.45501400     0.13300
C1412       C  0.97118707  0.16186649  0.45600891    -0.21100
C1413       C  0.97842516  0.14270593  0.43112516    -0.07600
C1414       C  0.96102118  0.13630066  0.40356254     0.13300
C1415       C  0.97012243  0.12329933  0.87207156    -0.24400
H1416       H  0.92829189  0.15346389  0.87591307     0.14500
H1417       H  0.98393912  0.16669361  0.47765643     0.14600
C1418       C  0.93853778  0.19126731  0.48459847    -0.24400
H1419       H  0.95581386  0.12381419  0.85028716     0.04800
H1420       H  0.96999807  0.10328325  0.88322798     0.08000
H1421       H  0.98923366  0.12769344  0.86050507     0.08000
H1422       H  0.92112949  0.18310826  0.49766810     0.08000
H1423       H  0.93411937  0.21084069  0.47389262     0.08000
H1424       H  0.95371213  0.19340444  0.50501797     0.04800
C1425       C  0.84776449  0.12784782  0.31463104    -0.21000
C1426       C  0.85907772  0.12148621  0.34733016    -0.07600
C1427       C  0.87982927  0.10377319  0.34739851     0.13300
C1428       C  0.89115001  0.09608816  0.31492803    -0.21100
C1429       C  0.88185901  0.10538964  0.28226765    -0.07600
C1430       C  0.85909855  0.12036183  0.28223901     0.13300
C1431       C  0.84854306  0.13107762  0.24813897    -0.24400
H1432       H  0.83212619  0.14178962  0.31431721     0.14500
H1433       H  0.90866746  0.08468770  0.31520749     0.14600
C1434       C  0.89110377  0.09453203  0.38189573    -0.24400
H1435       H  0.83073416  0.14255764  0.25250124     0.04800
H1436       H  0.84405792  0.11486846  0.22978045     0.08000
H1437       H  0.86307659  0.14406320  0.23580146     0.08000
H1438       H  0.87618731  0.08378958  0.39717799     0.08000
H1439       H  0.89772605  0.11123940  0.39795839     0.08000
H1440       H  0.90769199  0.08131697  0.37755225     0.04800
C1441       C  0.81724611  0.22529277  0.04585178    -0.21000
C1442       C  0.84104180  0.22300962  0.02814640    -0.07600
C1443       C  0.86001689  0.24205940  0.03361018     0.13300
C1444       C  0.85459264  0.26307507  0.05606113    -0.21100
C1445       C  0.83058081  0.26554750  0.07339582    -0.07600
C1446       C  0.81173065  0.24614318  0.06830825     0.13300
C1447       C  0.78528891  0.24775731  0.08485148    -0.24400
H1448       H  0.80196292  0.21170316  0.03994018     0.14500
H1449       H  0.86945746  0.27749729  0.06035445     0.14600
C1450       C  0.88545370  0.24093154  0.01443417    -0.24400
H1451       H  0.77225602  0.23235501  0.07471928     0.04800
H1452       H  0.77646775  0.26689110  0.07861590     0.08000
H1453       H  0.78644313  0.24508576  0.11397629     0.08000
H1454       H  0.88240668  0.24136648  0.98533478     0.08000
H1455       H  0.89553727  0.22269579  0.02174657     0.08000
H1456       H  0.89805097  0.25759999  0.02141968     0.04800
C1457       C  0.84973831  0.25851126  0.27014847    -0.21000
C1458       C  0.83990363  0.28323181  0.27773802    -0.07600
C1459       C  0.82487360  0.28665818  0.30845502     0.13300
C1460       C  0.81965618  0.26524611  0.33054708    -0.21100
C1461       C  0.82846441  0.24006343  0.32216693    -0.07600
C1462       C  0.84382322  0.23677874  0.29121126     0.13300
C1463       C  0.85345915  0.21054161  0.27900080    -0.24400
H1464       H  0.86076384  0.25585524  0.24600751     0.14500
H1465       H  0.80858032  0.26832495  0.35455241     0.14600
C1466       C  0.81357462  0.31272303  0.31720704    -0.24400
H1467       H  0.86250934  0.21163503  0.25232762     0.04800
H1468       H  0.83720189  0.19657064  0.27738092     0.08000
H1469       H  0.86838151  0.20305220  0.29724750     0.08000
H1470       H  0.79994046  0.31819128  0.29613663     0.08000
H1471       H  0.82908469  0.32752629  0.31893053     0.08000
H1472       H  0.80292549  0.31240800  0.34278618     0.04800
C1473       C  0.74648992  0.16611680  0.46171967    -0.21000
C1474       C  0.77166678  0.16438653  0.47423480    -0.07600
C1475       C  0.77524733  0.16201281  0.01198657     0.13300
C1476       C  0.75283293  0.16368042  0.03324290    -0.21100
C1477       C  0.72832120  0.16168839  0.01833908    -0.07600
C1478       C  0.72543428  0.16509028  0.48532282     0.13300
C1479       C  0.70022525  0.15648527  0.47014159    -0.24400
H1480       H  0.74316506  0.16635569  0.43337180     0.14500
H1481       H  0.75447125  0.16520788  0.06178898     0.14600
C1482       C  0.80028744  0.15623683  0.03040073    -0.24400
H1483       H  0.70329570  0.13859544  0.45423545     0.04800
H1484       H  0.69237688  0.17155679  0.45225103     0.08000
H1485       H  0.68637030  0.15086031  0.49105030     0.08000
H1486       H  0.81472978  0.17136480  0.02520573     0.08000
H1487       H  0.80787405  0.13730998  0.02089927     0.08000
H1488       H  0.79783667  0.15476547  0.05960057     0.04800
C1489       C  0.61825090  0.39424132  0.39122569    -0.21000
C1490       C  0.63685709  0.37497276  0.39753431    -0.07600
C1491       C  0.64487877  0.37094601  0.43314037     0.13300
C1492       C  0.63164825  0.38313428  0.46130958    -0.21100
C1493       C  0.61057775  0.39957029  0.45515894    -0.07600
C1494       C  0.60499025  0.40647056  0.41947124     0.13300
C1495       C  0.58433075  0.42604829  0.41093011    -0.24400
H1496       H  0.61210335  0.39780367  0.36422816     0.14500
H1497       H  0.63642344  0.37784270  0.48834039     0.14600
C1498       C  0.66658473  0.35280122  0.44246397    -0.24400
H1499       H  0.58368617  0.43044599  0.38210376     0.04800
H1500       H  0.58825933  0.44450548  0.42515495     0.08000
H1501       H  0.56510634  0.41859245  0.41871023     0.08000
H1502       H  0.67689389  0.34545573  0.41873793     0.08000
H1503       H  0.65901217  0.33600469  0.45787890     0.08000
H1504       H  0.68088389  0.36332582  0.45885632     0.04800
C1505       C  0.47464040  0.39299172  0.44330772    -0.21000
C1506       C  0.48265501  0.41744216  0.45672178    -0.07600
C1507       C  0.46694000  0.43924923  0.45000842     0.13300
C1508       C  0.44695554  0.43696198  0.42502807    -0.21100
C1509       C  0.44186773  0.41315770  0.40788419    -0.07600
C1510       C  0.45420946  0.39059343  0.41972800     0.13300
C1511       C  0.44771891  0.36429868  0.40443277    -0.24400
H1512       H  0.48482068  0.37536565  0.45039736     0.14500
H1513       H  0.43701900  0.45431674  0.41615856     0.14600
C1514       C  0.47142149  0.46482484  0.46813604    -0.24400
H1515       H  0.45919567  0.34849776  0.41677716     0.04800
H1516       H  0.45167036  0.36413450  0.37549550     0.08000
H1517       H  0.42705592  0.35998740  0.40909871     0.08000
H1518       H  0.49093155  0.47221406  0.46156751     0.08000
H1519       H  0.47832094  0.45849415  0.00413336     0.08000
H1520       H  0.45698026  0.47955794  0.46003135     0.04800
C1521       C  0.52557361  0.38069005  0.16455258    -0.21000
C1522       C  0.54486192  0.39947268  0.16266411    -0.07600
C1523       C  0.54456922  0.42031533  0.18684159     0.13300
C1524       C  0.52320895  0.42376233  0.20918938    -0.21100
C1525       C  0.50180935  0.40707533  0.20729672    -0.07600
C1526       C  0.50362319  0.38446156  0.18547278     0.13300
C1527       C  0.48281088  0.36405968  0.18295066    -0.24400
H1528       H  0.52601736  0.36475587  0.14573815     0.14500
H1529       H  0.52281456  0.44020087  0.22710391     0.14600
C1530       C  0.56624791  0.43971906  0.18734438    -0.24400
H1531       H  0.48789221  0.34832811  0.16410192     0.04800
H1532       H  0.46469456  0.37282916  0.17327350     0.08000
H1533       H  0.47994742  0.35453223  0.20897757     0.08000
H1534       H  0.56788057  0.44942724  0.16122753     0.08000
H1535       H  0.58456547  0.42954593  0.19322063     0.08000
H1536       H  0.56319734  0.45496627  0.20772756     0.04800
C1537       C  0.62230402  0.31879466  0.04868563    -0.21000
C1538       C  0.59573132  0.32027309  0.05573159    -0.07600
C1539       C  0.58230391  0.29732088  0.06505120     0.13300
C1540       C  0.59579630  0.27382796  0.06785691    -0.21100
C1541       C  0.62233203  0.27232997  0.06089352    -0.07600
C1542       C  0.63573273  0.29511782  0.05075173     0.13300
C1543       C  0.66419427  0.29487015  0.04310516    -0.24400
H1544       H  0.63264081  0.33629403  0.04116777     0.14500
H1545       H  0.58541817  0.25634110  0.07542428     0.14600
C1546       C  0.55388692  0.29735568  0.07261820    -0.24400
H1547       H  0.67162927  0.31465711  0.03695753     0.04800
H1548       H  0.66823040  0.28236307  0.01980933     0.08000
H1549       H  0.67475435  0.28737944  0.06653516     0.08000
H1550       H  0.54342222  0.30225177  0.04795323     0.08000
H1551       H  0.54937587  0.31173444  0.09365082     0.08000
H1552       H  0.54690993  0.27800681  0.08172562     0.04800
C1553       C  0.44300183  0.33063605  0.06718622    -0.21000
C1554       C  0.42272427  0.34546856  0.05316682    -0.07600
C1555       C  0.42793049  0.37037536  0.03898422     0.13300
C1556       C  0.45323821  0.38001173  0.03987283    -0.21100
C1557       C  0.47334079  0.36522660  0.05437441    -0.07600
C1558       C  0.46829306  0.34009085  0.06748637     0.13300
C1559       C  0.48950872  0.32344861  0.08208648    -0.24400
H1560       H  0.43887103  0.31174299  0.07871501     0.14500
H1561       H  0.45741442  0.39916858  0.02913706     0.14600
C1562       C  0.40676479  0.38717503  0.02434198    -0.24400
H1563       H  0.48220461  0.30450789  0.09224729     0.04800
H1564       H  0.49930407  0.33372118  0.10405755     0.08000
H1565       H  0.50355329  0.31950761  0.06067180     0.08000
H1566       H  0.39211172  0.39085963  0.04520028     0.08000
H1567       H  0.39754734  0.37721146  0.00162389     0.08000
H1568       H  0.41418396  0.40626135  0.01485957     0.04800
C1569       C  0.62705453  0.59386786  0.31454962    -0.21000
C1570       C  0.63199771  0.60629805  0.28189715    -0.07600
C1571       C  0.64914597  0.62774292  0.28180260     0.13300
C1572       C  0.65888775  0.63754408  0.31408091    -0.21100
C1573       C  0.65151404  0.62698523  0.34706280    -0.07600
C1574       C  0.63645379  0.60401211  0.34694259     0.13300
C1575       C  0.62821073  0.59168649  0.38130513    -0.24400
H1576       H  0.61342959  0.57788867  0.31518348     0.14500
H1577       H  0.66995810  0.65544297  0.31376788     0.14600
C1578       C  0.65515944  0.64196455  0.24781225    -0.24400
H1579       H  0.61622621  0.57407715  0.37700504     0.04800
H1580       H  0.61676461  0.60583809  0.39670999     0.08000
H1581       H  0.64542308  0.58599357  0.39679496     0.08000
H1582       H  0.63729578  0.65038167  0.23664851     0.08000
H1583       H  0.66369748  0.62823425  0.22841234     0.08000
H1584       H  0.66900551  0.65813275  0.25199822     0.04800
C1585       C  0.49027606  0.61196636  0.34806404    -0.21000
C1586       C  0.46746234  0.59784555  0.34413092    -0.07600
C1587       C  0.46559772  0.57921598  0.31707058     0.13300
C1588       C  0.48706581  0.57405008  0.29576558    -0.21100
C1589       C  0.51078161  0.58667111  0.30134217    -0.07600
C1590       C  0.51227843  0.60607341  0.32815900     0.13300
C1591       C  0.53688347  0.62008347  0.33757711    -0.24400
H1592       H  0.49177363  0.62553958  0.36995598     0.14500
H1593       H  0.48526303  0.55973840  0.27489693     0.14600
C1594       C  0.44124448  0.56377297  0.31213678    -0.24400
H1595       H  0.53460784  0.63234913  0.36158995     0.04800
H1596       H  0.54279629  0.63329836  0.31576130     0.08000
H1597       H  0.55230032  0.60575207  0.34326842     0.08000
H1598       H  0.42501671  0.57724037  0.30694902     0.08000
H1599       H  0.43695276  0.55229686  0.33636015     0.08000
H1600       H  0.44278677  0.55003078  0.28956827     0.04800
C1601       C  0.52383908  0.56862880  0.04482285    -0.21000
C1602       C  0.50053565  0.58239987  0.04861298    -0.07600
C1603       C  0.49842716  0.60077664  0.07675725     0.13300
C1604       C  0.51945177  0.60493399  0.09911711    -0.21100
C1605       C  0.54208664  0.59048457  0.09607984    -0.07600
C1606       C  0.54437256  0.57216343  0.06856128     0.13300
C1607       C  0.56838985  0.55608450  0.06475692    -0.24400
H1608       H  0.52601106  0.55484349  0.02335810     0.14500
H1609       H  0.51740203  0.61805494  0.12140835     0.14600
C1610       C  0.47415842  0.61585618  0.08477584    -0.24400
H1611       H  0.56712497  0.54243583  0.04206152     0.04800
H1612       H  0.57167242  0.54450148  0.08913286     0.08000
H1613       H  0.58513672  0.56913648  0.06037749     0.08000
H1614       H  0.47022714  0.63001474  0.06328174     0.08000
H1615       H  0.47574485  0.62729405  0.10962298     0.08000
H1616       H  0.45770211  0.60228026  0.08826795     0.04800
C1617       C  0.59559595  0.48436907  0.11660442    -0.21000
C1618       C  0.57176148  0.47972022  0.09975519    -0.07600
C1619       C  0.55005031  0.49368600  0.11255116     0.13300
C1620       C  0.55256051  0.51045392  0.14196217    -0.21100
C1621       C  0.57634700  0.51527854  0.15836929    -0.07600
C1622       C  0.59819108  0.50212796  0.14505212     0.13300
C1623       C  0.62415882  0.50610041  0.16168309    -0.24400
H1624       H  0.61235961  0.47361406  0.10788468     0.14500
H1625       H  0.53574242  0.52079163  0.15129245     0.14600
C1626       C  0.52390226  0.49115359  0.09588722    -0.24400
H1627       H  0.63900117  0.49344640  0.14941365     0.04800
H1628       H  0.62308566  0.50134672  0.19038512     0.08000
H1629       H  0.63044366  0.52659821  0.15831079     0.08000
H1630       H  0.51632864  0.47123242  0.10003098     0.08000
H1631       H  0.52514211  0.49573634  0.06715111     0.08000
H1632       H  0.50977101  0.50479110  0.10778944     0.04800
C1633       C  0.85549496  0.61455840  0.21514688    -0.21000
C1634       C  0.87917239  0.60156005  0.21208746    -0.07600
C1635       C  0.88922962  0.59728911  0.17768509     0.13300
C1636       C  0.87772787  0.60931463  0.14823511    -0.21100
C1637       C  0.85640862  0.62578586  0.15201566    -0.07600
C1638       C  0.84439615  0.62735014  0.18564894     0.13300
C1639       C  0.82121354  0.64441654  0.19091019    -0.24400
H1640       H  0.84733226  0.61743776  0.24127063     0.14500
H1641       H  0.88729290  0.60808671  0.12277273     0.14600
C1642       C  0.91350504  0.58191825  0.17172171    -0.24400
H1643       H  0.81412004  0.64365563  0.21870171     0.04800
H1644       H  0.80548715  0.63784423  0.17323890     0.08000
H1645       H  0.82613128  0.66494099  0.18450732     0.08000
H1646       H  0.92056608  0.57265201  0.19642910     0.08000
H1647       H  0.92879123  0.59489334  0.16101796     0.08000
H1648       H  0.90974278  0.56616598  0.15233660     0.04800
C1649       C  0.00327147  0.61053235  0.18727201    -0.21000
C1650       C  0.00214421  0.58769976  0.20786932    -0.07600
C1651       C  0.02297475  0.57002230  0.20612973     0.13300
C1652       C  0.04323267  0.57487750  0.18211124    -0.21100
C1653       C  0.04340258  0.59705894  0.16017399    -0.07600
C1654       C  0.02390330  0.61577264  0.16453171     0.13300
C1655       C  0.02313309  0.64051263  0.14303248    -0.24400
H1656       H  0.98801810  0.62483526  0.18912989     0.14500
H1657       H  0.05766360  0.55999114  0.17777331     0.14600
C1658       C  0.02327875  0.54528031  0.22762890    -0.24400
H1659       H  0.02269948  0.65750194  0.16112960     0.04800
H1660       H  0.00546632  0.64069577  0.12666370     0.08000
H1661       H  0.04008193  0.64272865  0.12533495     0.08000
H1662       H  0.00538303  0.53405478  0.22278942     0.08000
H1663       H  0.02486717  0.54985082  0.25624440     0.08000
H1664       H  0.03991874  0.53277217  0.22056811     0.04800
C1665       C  0.95252320  0.57317451  0.43236974    -0.21000
C1666       C  0.95270967  0.59582078  0.41138947    -0.07600
C1667       C  0.97229179  0.61428961  0.41663840     0.13300
C1668       C  0.99349321  0.60776135  0.43753757    -0.21100
C1669       C  0.99481785  0.58388261  0.45590223    -0.07600
C1670       C  0.97298752  0.56729124  0.45535819     0.13300
C1671       C  0.97317332  0.54456412  0.97545748    -0.24400
H1672       H  0.93750749  0.55885474  0.42816856     0.14500
H1673       H  0.00902091  0.62174579  0.43960243     0.14600
C1674       C  0.97211848  0.64030985  0.39809819    -0.24400
H1675       H  0.95707651  0.53183088  0.96693519     0.04800
H1676       H  0.97218804  0.54613386  0.00475549     0.08000
H1677       H  0.99152445  0.53516819  0.96762259     0.08000
H1678       H  0.95435511  0.64338558  0.38245739     0.08000
H1679       H  0.98888815  0.64193460  0.38003313     0.08000
H1680       H  0.97324524  0.65605449  0.41811677     0.04800
C1681       C  0.86081426  0.39446273  0.04011078    -0.21000
C1682       C  0.88620070  0.40382612  0.04062638    -0.07600
C1683       C  0.89830117  0.40710565  0.07389306     0.13300
C1684       C  0.88616317  0.39799671  0.10498380    -0.21100
C1685       C  0.86231859  0.38518878  0.10383693    -0.07600
C1686       C  0.84889737  0.38480029  0.07125940     0.13300
C1687       C  0.82295899  0.37189649  0.06883689    -0.24400
H1688       H  0.85140410  0.39191972  0.01478862     0.14500
H1689       H  0.89683722  0.39807944  0.12962731     0.14600
C1690       C  0.92500242  0.41826971  0.07703179    -0.24400
H1691       H  0.81500149  0.37313316  0.04160980     0.04800
H1692       H  0.80932283  0.38160226  0.08722931     0.08000
H1693       H  0.82446670  0.35102094  0.07612976     0.08000
H1694       H  0.93253676  0.42561485  0.05133089     0.08000
H1695       H  0.93831308  0.40314384  0.08725828     0.08000
H1696       H  0.92471731  0.43488992  0.09575984     0.04800
C1697       C  0.02425694  0.42766095  0.04103229    -0.21000
C1698       C  0.00837684  0.40592817  0.03607331    -0.07600
C1699       C  0.01566047  0.38193457  0.05224314     0.13300
C1700       C  0.03563005  0.38161279  0.07719424    -0.21100
C1701       C  0.04889226  0.40432106  0.08579224    -0.07600
C1702       C  0.04462267  0.42692877  0.06528964     0.13300
C1703       C  0.06060013  0.45096533  0.07005722    -0.24400
H1704       H  0.02032998  0.44556693  0.02678432     0.14500
H1705       H  0.03920733  0.36411384  0.09251848     0.14600
C1706       C  0.00309820  0.35636871  0.04324653    -0.24400
H1707       H  0.06958497  0.45651776  0.04437859     0.04800
H1708       H  0.07623980  0.44787458  0.08951866     0.08000
H1709       H  0.04808155  0.46704062  0.07913883     0.08000
H1710       H  0.00579527  0.35227709  0.01473665     0.08000
H1711       H  0.98237815  0.35668877  0.05013960     0.08000
H1712       H  0.01190189  0.33987236  0.05789637     0.04800
C1713       C  0.97092313  0.38371063  0.33476969    -0.21000
C1714       C  0.95308969  0.40393043  0.33675620    -0.07600
C1715       C  0.95559701  0.42533175  0.31345092     0.13300
C1716       C  0.97685041  0.42685599  0.29045381    -0.21100
C1717       C  0.99630347  0.40790802  0.29107400    -0.07600
C1718       C  0.99283519  0.38558703  0.31315019     0.13300
C1719       C  0.01186733  0.36349366  0.31483906    -0.24400
H1720       H  0.96923011  0.36765980  0.35341262     0.14500
H1721       H  0.97872224  0.44343163  0.27278421     0.14600
C1722       C  0.93646783  0.44725263  0.31436016    -0.24400
H1723       H  0.00592212  0.34824970  0.33415873     0.04800
H1724       H  0.03094386  0.37076950  0.32341680     0.08000
H1725       H  0.01328671  0.35390257  0.28870288     0.08000
H1726       H  0.93649686  0.45635552  0.34085505     0.08000
H1727       H  0.91693968  0.43960684  0.30875365     0.08000
H1728       H  0.94108425  0.46258932  0.29450886     0.04800
C1729       C  0.90968410  0.30218685  0.42733058    -0.21000
C1730       C  0.89414683  0.32436690  0.43050038    -0.07600
C1731       C  0.86704532  0.32163747  0.42700234     0.13300
C1732       C  0.85648933  0.29685141  0.42104376    -0.21100
C1733       C  0.87217721  0.27487199  0.41783146    -0.07600
C1734       C  0.89913612  0.27760046  0.42086445     0.13300
C1735       C  0.91694597  0.25456597  0.41874766    -0.24400
H1736       H  0.93035212  0.30403651  0.42999426     0.14500
H1737       H  0.83583580  0.29458990  0.41862426     0.14600
C1738       C  0.84890037  0.34436529  0.43030305    -0.24400
H1739       H  0.93722720  0.26003852  0.42409887     0.04800
H1740       H  0.91627451  0.24593219  0.39186454     0.08000
H1741       H  0.91110796  0.23987975  0.43874382     0.08000
H1742       H  0.85273534  0.35868969  0.40883698     0.08000
H1743       H  0.85130564  0.35369960  0.45655248     0.08000
H1744       H  0.82847467  0.33826763  0.42801067     0.04800
C1745       C  0.90635171  0.48957273  0.38552671    -0.21000
C1746       C  0.92921110  0.48301128  0.40354116    -0.07600
C1747       C  0.95230437  0.49556175  0.39248263     0.13300
C1748       C  0.95188913  0.51324661  0.36376092    -0.21100
C1749       C  0.92915269  0.51928949  0.34546132    -0.07600
C1750       C  0.90599407  0.50744223  0.35702368     0.13300
C1751       C  0.88087930  0.51288830  0.33864933    -0.24400
H1752       H  0.88858684  0.47996626  0.39309536     0.14500
H1753       H  0.96955691  0.52295454  0.35601532     0.14600
C1754       C  0.97782889  0.48994488  0.40954555    -0.24400
H1755       H  0.86505297  0.50058522  0.34932875     0.04800
H1756       H  0.88284095  0.50874484  0.30990183     0.08000
H1757       H  0.87519930  0.53348656  0.34241139     0.08000
H1758       H  0.98379769  0.46976254  0.40354900     0.08000
H1759       H  0.97645457  0.49273677  0.43860298     0.08000
H1760       H  0.99322940  0.50304367  0.39945540     0.04800
C1761       C  0.03842581  0.38061426  0.44986759    -0.21000
C1762       C  0.01824771  0.36257771  0.44764404    -0.07600
C1763       C  0.02391356  0.33574851  0.44835392     0.13300
C1764       C  0.04980971  0.32773281  0.44875246    -0.21100
C1765       C  0.07022286  0.34587439  0.44967063    -0.07600
C1766       C  0.06419583  0.37276417  0.45143794     0.13300
C1767       C  0.08453600  0.39358824  0.45427020    -0.24400
H1768       H  0.03390388  0.40120065  0.45089604     0.14500
H1769       H  0.05411604  0.30711308  0.44784741     0.14600
C1770       C  0.00283900  0.31561875  0.44758776    -0.24400
H1771       H  0.07608655  0.41340970  0.45550583     0.04800
H1772       H  0.09737631  0.39298068  0.43077887     0.08000
H1773       H  0.09586472  0.39064564  0.47883331     0.08000
H1774       H  0.99070659  0.31857250  0.42376508     0.08000
H1775       H  0.99071910  0.31724011  0.47175462     0.08000
H1776       H  0.01070499  0.29554259  0.44673697     0.04800
C1777       C  0.03560357  0.63284090  0.33818159    -0.21000
C1778       C  0.02175239  0.63864233  0.30718561    -0.07600
C1779       C  0.03318845  0.65562992  0.28163798     0.13300
C1780       C  0.05867115  0.66402962  0.28632007    -0.21100
C1781       C  0.07254173  0.65714105  0.31649474    -0.07600
C1782       C  0.06040315  0.64271662  0.34367708     0.13300
C1783       C  0.07331491  0.63825277  0.37881740    -0.24400
H1784       H  0.02703022  0.62053948  0.35840618     0.14500
H1785       H  0.06785471  0.67617187  0.26638947     0.14600
C1786       C  0.01914050  0.66507794  0.24924149    -0.24400
H1787       H  0.06112527  0.62662571  0.39724204     0.04800
H1788       H  0.07744781  0.65724647  0.39154531     0.08000
H1789       H  0.09154844  0.62775518  0.37478251     0.08000
H1790       H  0.00150234  0.67572767  0.25725419     0.08000
H1791       H  0.01409078  0.64838421  0.23231510     0.08000
H1792       H  0.03104852  0.67855855  0.23295398     0.04800
C1793       C  0.12045944  0.59042029  0.43205944    -0.21000
C1794       C  0.12368207  0.60177768  0.46570322    -0.07600
C1795       C  0.14244512  0.62156821  0.46930602     0.13300
C1796       C  0.15423252  0.63220825  0.43889033    -0.21100
C1797       C  0.14844800  0.62313389  0.40474511    -0.07600
C1798       C  0.13329284  0.60040137  0.40172666     0.13300
C1799       C  0.12928194  0.58784638  0.36614275    -0.24400
H1800       H  0.10627013  0.57513960  0.42896272     0.14500
H1801       H  0.16601889  0.64951759  0.44161192     0.14600
C1802       C  0.14853189  0.63371373  0.50455030    -0.24400
H1803       H  0.11634208  0.57068759  0.36813255     0.04800
H1804       H  0.14810246  0.58123289  0.35554355     0.08000
H1805       H  0.12081463  0.60179153  0.34700094     0.08000
H1806       H  0.14487571  0.60737298  0.01783794     0.08000
H1807       H  0.14222315  0.65435562  0.50468148     0.08000
H1808       H  0.16959590  0.63293851  0.50910718     0.04800
C1809       C  0.12096891  0.81836982  0.30127445    -0.21000
C1810       C  0.09574490  0.82180342  0.31372012    -0.07600
C1811       C  0.08254034  0.80036554  0.32876436     0.13300
C1812       C  0.09486119  0.77602952  0.33064222    -0.21100
C1813       C  0.11996915  0.77239322  0.31749139    -0.07600
C1814       C  0.13326158  0.79407295  0.30286376     0.13300
C1815       C  0.16070302  0.79222985  0.28998548    -0.24400
H1816       H  0.13104300  0.83482853  0.28966978     0.14500
H1817       H  0.08474139  0.75967718  0.34241708     0.14600
C1818       C  0.05582581  0.80320842  0.34390919    -0.24400
H1819       H  0.16822732  0.81137301  0.28089526     0.04800
H1820       H  0.16202503  0.77870178  0.26720894     0.08000
H1821       H  0.17322415  0.78527628  0.31181916     0.08000
H1822       H  0.04205627  0.80824717  0.32259085     0.08000
H1823       H  0.05568202  0.81871629  0.36434912     0.08000
H1824       H  0.04902205  0.78489013  0.35655634     0.04800
C1825       C  0.39087962  0.59383414  0.06473077    -0.21000
C1826       C  0.38145870  0.60215147  0.03172578    -0.07600
C1827       C  0.36019236  0.61926185  0.03130478     0.13300
C1828       C  0.35082082  0.62982697  0.06341817    -0.21100
C1829       C  0.36249114  0.62396898  0.09603127    -0.07600
C1830       C  0.38204324  0.60486610  0.09668594     0.13300
C1831       C  0.39546091  0.59805811  0.13074741    -0.24400
H1832       H  0.40754641  0.58117593  0.06524102     0.14500
H1833       H  0.33615565  0.64478340  0.06262840     0.14600
C1834       C  0.34910549  0.62835536  0.99668402    -0.24400
H1835       H  0.41023635  0.58273296  0.12683306     0.04800
H1836       H  0.38116586  0.59080005  0.15034795     0.08000
H1837       H  0.40524129  0.61553434  0.14144301     0.08000
H1838       H  0.34220050  0.61133803  0.98134874     0.08000
H1839       H  0.36679967  0.64162530  0.48071560     0.08000
H1840       H  0.33270675  0.64186629  0.00070468     0.04800
C1841       C  0.45454815  0.66473150  0.18607301    -0.21000
C1842       C  0.43258563  0.65081404  0.19744418    -0.07600
C1843       C  0.43609515  0.62600648  0.21361179     0.13300
C1844       C  0.46094901  0.61545506  0.21581801    -0.21100
C1845       C  0.48245555  0.62918846  0.20351960    -0.07600
C1846       C  0.47939334  0.65433726  0.18932438     0.13300
C1847       C  0.50229318  0.66995969  0.17694647    -0.24400
H1848       H  0.45234853  0.68376896  0.17405179     0.14500
H1849       H  0.46371942  0.59640162  0.22763300     0.14600
C1850       C  0.41415153  0.61049900  0.22927851    -0.24400
H1851       H  0.49649534  0.68908117  0.16577066     0.04800
H1852       H  0.51286058  0.65911189  0.15609839     0.08000
H1853       H  0.51537537  0.67362601  0.19956602     0.08000
H1854       H  0.40057647  0.60451847  0.20826636     0.08000
H1855       H  0.40397822  0.62229699  0.24954943     0.08000
H1856       H  0.42095563  0.59242389  0.24242327     0.04800
C1857       C  0.23684323  0.69560404  0.25132789    -0.21000
C1858       C  0.23221594  0.67366329  0.27282910    -0.07600
C1859       C  0.24658877  0.65091807  0.26592767     0.13300
C1860       C  0.26616829  0.65127393  0.23965131    -0.21100
C1861       C  0.27126228  0.67349409  0.21843535    -0.07600
C1862       C  0.25537873  0.69567671  0.22384190     0.13300
C1863       C  0.25758931  0.71980502  0.20120048    -0.24400
H1864       H  0.22523233  0.71282242  0.25536857     0.14500
H1865       H  0.27792671  0.63408022  0.23613540     0.14600
C1866       C  0.24181013  0.62647229  0.28701224    -0.24400
H1867       H  0.24226034  0.73413680  0.20740577     0.04800
H1868       H  0.25567077  0.71461383  0.17278757     0.08000
H1869       H  0.27621845  0.72960354  0.20595525     0.08000
H1870       H  0.22187202  0.61951116  0.28260093     0.08000
H1871       H  0.24455515  0.63046958  0.31565151     0.08000
H1872       H  0.25517235  0.61063371  0.27920785     0.04800
C1873       C  0.41458488  0.77402094  0.18982805    -0.21000
C1874       C  0.38773030  0.77095770  0.19145208    -0.07600
C1875       C  0.37208281  0.79325765  0.19576788     0.13300
C1876       C  0.38364175  0.81779044  0.19836068    -0.21100
C1877       C  0.41045528  0.82098077  0.19694543    -0.07600
C1878       C  0.42619836  0.79870703  0.19294960     0.13300
C1879       C  0.45507514  0.80080300  0.19093791    -0.24400
H1880       H  0.42653533  0.75697906  0.18604827     0.14500
H1881       H  0.37148946  0.83472896  0.20180847     0.14600
C1882       C  0.34309110  0.79170236  0.19617862    -0.24400
H1883       H  0.46417874  0.78162439  0.18586844     0.04800
H1884       H  0.46274794  0.80819691  0.21639832     0.08000
H1885       H  0.46070397  0.81418924  0.16906908     0.08000
H1886       H  0.33645366  0.78039277  0.21960150     0.08000
H1887       H  0.33617446  0.78236998  0.17146808     0.08000
H1888       H  0.33409535  0.81125512  0.19784784     0.04800
C1889       C  0.06484410  0.85407466  0.09233596    -0.21000
C1890       C  0.07591591  0.84371963  0.06157700    -0.07600
C1891       C  0.06211343  0.84371206  0.02969601     0.13300
C1892       C  0.03727716  0.85429776  0.02921666    -0.21100
C1893       C  0.02602474  0.86515351  0.05988031    -0.07600
C1894       C  0.04014599  0.86500016  0.09195787     0.13300
C1895       C  0.02933499  0.87560003  0.12607329    -0.24400
H1896       H  0.07574815  0.85373974  0.11679105     0.14500
H1897       H  0.02689203  0.85465901  0.00441392     0.14600
C1898       C  0.07362160  0.83254570  0.99636211    -0.24400
H1899       H  0.04250224  0.87229497  0.14875420     0.04800
H1900       H  0.01097641  0.86562465  0.13220758     0.08000
H1901       H  0.02621381  0.89689382  0.12389647     0.08000
H1902       H  0.07824840  0.81167160  0.00056707     0.08000
H1903       H  0.09153226  0.84322975  0.98943762     0.08000
H1904       H  0.06022133  0.83407082  0.97359312     0.04800
C1905       C  0.12434119  0.89169979  0.14945200    -0.21000
C1906       C  0.14503323  0.87438779  0.15316137    -0.07600
C1907       C  0.15446863  0.86939777  0.18768728     0.13300
C1908       C  0.14168692  0.87987439  0.21755394    -0.21100
C1909       C  0.11906241  0.89452858  0.21384524    -0.07600
C1910       C  0.11096404  0.90134492  0.17923920     0.13300
C1911       C  0.08698743  0.91721156  0.17360964    -0.24400
H1912       H  0.11655717  0.89504162  0.12320680     0.14500
H1913       H  0.14777485  0.87423648  0.24392678     0.14600
C1914       C  0.17676582  0.85117072  0.19310456    -0.24400
H1915       H  0.08365265  0.92134090  0.14507877     0.04800
H1916       H  0.08871448  0.93605277  0.18771776     0.08000
H1917       H  0.07000453  0.90649308  0.18381289     0.08000
H1918       H  0.19385150  0.85866052  0.17856542     0.08000
H1919       H  0.17191055  0.83150837  0.18307676     0.08000
H1920       H  0.18184000  0.84928001  0.22156693     0.04800
C1921       C  0.17569224  0.72539626  0.16187807    -0.21000
C1922       C  0.16290387  0.74928658  0.16694460    -0.07600
C1923       C  0.14360060  0.75076408  0.19384069     0.13300
C1924       C  0.13827636  0.72880368  0.21464708    -0.21100
C1925       C  0.15291585  0.70615086  0.21181784    -0.07600
C1926       C  0.17120779  0.70404184  0.18439538     0.13300
C1927       C  0.18667739  0.67949780  0.18002159    -0.24400
H1928       H  0.18973665  0.72351623  0.14075781     0.14500
H1929       H  0.12471070  0.73041115  0.23647212     0.14600
C1930       C  0.12887011  0.77531182  0.20234722    -0.24400
H1931       H  0.20027728  0.68092717  0.15732462     0.04800
H1932       H  0.17349200  0.66287891  0.17521770     0.08000
H1933       H  0.19798938  0.67553274  0.20430087     0.08000
H1934       H  0.11592622  0.78041609  0.18017839     0.08000
H1935       H  0.14240380  0.79151831  0.20784612     0.08000
H1936       H  0.11648912  0.77300182  0.22622164     0.04800
C1937       C  0.18240602  0.77086235  0.40975299    -0.21000
C1938       C  0.16801803  0.74772148  0.41386445    -0.07600
C1939       C  0.14839617  0.74698795  0.44036300     0.13300
C1940       C  0.14326834  0.76928931  0.46015832    -0.21100
C1941       C  0.15893559  0.79128974  0.45814762    -0.07600
C1942       C  0.17871088  0.79223356  0.43255413     0.13300
C1943       C  0.19629339  0.81545799  0.43023180    -0.24400
H1944       H  0.19712485  0.77197567  0.38939043     0.14500
H1945       H  0.13230028  0.76368905  0.98983724     0.14600
C1946       C  0.13309901  0.72289297  0.44979908    -0.24400
H1947       H  0.21094235  0.81314650  0.40897646     0.04800
H1948       H  0.20648715  0.81816113  0.45570595     0.08000
H1949       H  0.18482554  0.83316858  0.42448719     0.08000
H1950       H  0.14618618  0.70630144  0.45515577     0.08000
H1951       H  0.11936515  0.71823772  0.42847639     0.08000
H1952       H  0.12138612  0.72558422  0.47413746     0.04800
C1953       C  0.08292520  0.69974660  0.04987779    -0.21000
C1954       C  0.09667844  0.67686652  0.05806502    -0.07600
C1955       C  0.12227178  0.67929149  0.07099228     0.13300
C1956       C  0.13350772  0.70403178  0.07341464    -0.21100
C1957       C  0.11974860  0.72649791  0.06496794    -0.07600
C1958       C  0.09403380  0.72451465  0.05375415     0.13300
C1959       C  0.07850950  0.74847607  0.04533252    -0.24400
H1960       H  0.06332603  0.69834950  0.04042723     0.14500
H1961       H  0.15305078  0.70599072  0.08300789     0.14600
C1962       C  0.13799893  0.65633731  0.08322973    -0.24400
H1963       H  0.05889169  0.74345233  0.03602875     0.04800
H1964       H  0.08825878  0.75993509  0.02419354     0.08000
H1965       H  0.07651761  0.76068740  0.06939726     0.08000
H1966       H  0.14164254  0.64296395  0.06085064     0.08000
H1967       H  0.12772958  0.64594463  0.10491632     0.08000
H1968       H  0.15703425  0.66235756  0.09368628     0.04800
C1969       C  0.43113516  0.87100284  0.44681192    -0.21000
C1970       C  0.42882741  0.84377681  0.44676830    -0.07600
C1971       C  0.45137334  0.82836931  0.44993411     0.13300
C1972       C  0.47545992  0.84065976  0.45158036    -0.21100
C1973       C  0.47770082  0.86778471  0.44971500    -0.07600
C1974       C  0.45521364  0.88320875  0.44826034     0.13300
C1975       C  0.45631072  0.91253985  0.44940227    -0.24400
H1976       H  0.41400950  0.88289863  0.44470873     0.14500
H1977       H  0.49274608  0.82900466  0.45382750     0.14600
C1978       C  0.45042034  0.79905527  0.45221171    -0.24400
H1979       H  0.43680869  0.92130908  0.45005328     0.04800
H1980       H  0.46631347  0.92019220  0.42551855     0.08000
H1981       H  0.46659344  0.91889555  0.47360248     0.08000
H1982       H  0.44386653  0.79073269  0.42669889     0.08000
H1983       H  0.43723525  0.79296913  0.47394305     0.08000
H1984       H  0.46964677  0.79062840  0.45779140     0.04800
C1985       C  0.35663614  0.87520199  0.28267962    -0.21000
C1986       C  0.37498353  0.89516894  0.28507902    -0.07600
C1987       C  0.38073010  0.90534022  0.31900341     0.13300
C1988       C  0.37044302  0.89340420  0.34963885    -0.21100
C1989       C  0.35472188  0.87126377  0.34729082    -0.07600
C1990       C  0.34663300  0.86301409  0.31330062     0.13300
C1991       C  0.32925812  0.83980837  0.30852504    -0.24400
H1992       H  0.35244996  0.86690519  0.25693684     0.14500
H1993       H  0.37709650  0.89964661  0.37546230     0.14600
C1994       C  0.39973567  0.92720160  0.32369209    -0.24400
H1995       H  0.31221849  0.84561275  0.29274895     0.04800
H1996       H  0.32219779  0.83182205  0.33413559     0.08000
H1997       H  0.33974183  0.82421390  0.29419357     0.08000
H1998       H  0.40646367  0.93533919  0.29798716     0.08000
H1999       H  0.41669861  0.92006943  0.33862090     0.08000
H2000       H  0.39054353  0.94321757  0.33879654     0.04800
C2001       C  0.36602252  0.72428381  0.28918201    -0.21000
C2002       C  0.34755026  0.70452571  0.28888607    -0.07600
C2003       C  0.32672964  0.70565984  0.31289239     0.13300
C2004       C  0.32447018  0.72693176  0.33588231    -0.21100
C2005       C  0.34199805  0.74780919  0.33463486    -0.07600
C2006       C  0.36327865  0.74625342  0.31077483     0.13300
C2007       C  0.38319104  0.76748653  0.30686971    -0.24400
H2008       H  0.38131575  0.72382830  0.26952404     0.14500
H2009       H  0.30846661  0.72742714  0.35436777     0.14600
C2010       C  0.30590687  0.68524019  0.31336243    -0.24400
H2011       H  0.39745915  0.76308967  0.28573110     0.04800
H2012       H  0.39408277  0.76957550  0.33185838     0.08000
H2013       H  0.37381624  0.78611751  0.29950097     0.08000
H2014       H  0.30986983  0.66917768  0.29452247     0.08000
H2015       H  0.28722349  0.69424693  0.30622730     0.08000
H2016       H  0.30435623  0.67666492  0.34033344     0.04800
C2017       C  0.32311456  0.78549619  0.05612710    -0.21000
C2018       C  0.34687202  0.79159398  0.04010859    -0.07600
C2019       C  0.36901118  0.77787264  0.05040427     0.13300
C2020       C  0.36653392  0.75688560  0.07402801    -0.21100
C2021       C  0.34238542  0.74924089  0.08758064    -0.07600
C2022       C  0.32052981  0.76440758  0.07960342     0.13300
C2023       C  0.29422876  0.75750079  0.09374839    -0.24400
H2024       H  0.30601023  0.79569179  0.04736854     0.14500
H2025       H  0.38358768  0.74614506  0.08159951     0.14600
C2026       C  0.39491144  0.78419269  0.03447014    -0.24400
H2027       H  0.27908719  0.77029166  0.08249970     0.04800
H2028       H  0.29370247  0.75978668  0.12296781     0.08000
H2029       H  0.28946591  0.73708838  0.08672936     0.08000
H2030       H  0.39986459  0.80479441  0.04008602     0.08000
H2031       H  0.39450918  0.78121688  0.00533254     0.08000
H2032       H  0.41030884  0.77167184  0.04558583     0.04800
C2033       C  0.26620495  0.84365124  0.99026069    -0.21000
C2034       C  0.26911377  0.81797957  0.47155138    -0.07600
C2035       C  0.25624924  0.79540789  0.48459341     0.13300
C2036       C  0.23815316  0.79763044  0.51248317    -0.21100
C2037       C  0.23560908  0.82173673  0.03010175    -0.07600
C2038       C  0.24745135  0.84484504  0.01753993     0.13300
C2039       C  0.24081657  0.87085355  0.03341818    -0.24400
H2040       H  0.27584587  0.86141348  0.98212179     0.14500
H2041       H  0.22812652  0.78035964  0.52164496     0.14600
C2042       C  0.26144293  0.76870083  0.46993961    -0.24400
H2043       H  0.25285907  0.88672254  0.02210341     0.04800
H2044       H  0.24400059  0.87027989  0.06248947     0.08000
H2045       H  0.22043968  0.87574257  0.02802103     0.08000
H2046       H  0.28135217  0.76273967  0.47615719     0.08000
H2047       H  0.25829235  0.76863324  0.44085957     0.08000
H2048       H  0.24848266  0.75379342  0.48175284     0.04800
C2049       C  0.40211296  0.68839547  0.47311496    -0.21000
C2050       C  0.41471255  0.67761951  0.44385213    -0.07600
C2051       C  0.41580555  0.69117971  0.41153076     0.13300
C2052       C  0.40382811  0.71549015  0.40901475    -0.21100
C2053       C  0.39024779  0.72613655  0.43793004    -0.07600
C2054       C  0.38950911  0.71237162  0.47057151     0.13300
C2055       C  0.37570742  0.72257140  0.50288286    -0.24400
H2056       H  0.40142239  0.67749688  0.49778112     0.14500
H2057       H  0.40431710  0.72576441  0.38387754     0.14600
C2058       C  0.42927321  0.67979280  0.37974826    -0.24400
H2059       H  0.37860840  0.70985641  0.52640217     0.04800
H2060       H  0.35470312  0.72352078  0.49802572     0.08000
H2061       H  0.38316568  0.74215440  0.50945830     0.08000
H2062       H  0.42005697  0.66108180  0.37238031     0.08000
H2063       H  0.44979994  0.67622845  0.38611546     0.08000
H2064       H  0.42841209  0.69303937  0.35645882     0.04800
C2065       C  0.57055400  0.87673204  0.20420568    -0.21000
C2066       C  0.57189576  0.84971386  0.19842488    -0.07600
C2067       C  0.54858679  0.83526011  0.19703697     0.13300
C2068       C  0.52505338  0.84821560  0.20004973    -0.21100
C2069       C  0.52392988  0.87519739  0.20386147    -0.07600
C2070       C  0.54687949  0.88968192  0.20648811     0.13300
C2071       C  0.54650261  0.91861840  0.21267616    -0.24400
H2072       H  0.58810914  0.88798258  0.20624588     0.14500
H2073       H  0.50724587  0.83722524  0.19903681     0.14600
C2074       C  0.54795217  0.80615790  0.19349914    -0.24400
H2075       H  0.56619947  0.92672378  0.21541744     0.04800
H2076       H  0.53574551  0.92288417  0.23737458     0.08000
H2077       H  0.53712850  0.92861302  0.19005847     0.08000
H2078       H  0.55934126  0.79753708  0.21534771     0.08000
H2079       H  0.55567224  0.80027234  0.16727217     0.08000
H2080       H  0.52811671  0.79820978  0.19549912     0.04800
C2081       C  0.63785657  0.77595395  0.29326070    -0.21000
C2082       C  0.65767029  0.79412458  0.29008607    -0.07600
C2083       C  0.67957454  0.79169172  0.31176029     0.13300
C2084       C  0.68188368  0.77013610  0.33446123    -0.21100
C2085       C  0.66313968  0.75036930  0.33522339    -0.07600
C2086       C  0.64038612  0.75380446  0.31469915     0.13300
C2087       C  0.61853242  0.73446153  0.31422798    -0.24400
H2088       H  0.62143103  0.77764650  0.27574698     0.14500
H2089       H  0.69881538  0.76838173  0.35094306     0.14600
C2090       C  0.70103945  0.81134003  0.30957828    -0.24400
H2091       H  0.60313303  0.74024327  0.29548173     0.04800
H2092       H  0.60946540  0.73329677  0.34075084     0.08000
H2093       H  0.62555640  0.71509355  0.30561681     0.08000
H2094       H  0.69346371  0.83098281  0.31586553     0.08000
H2095       H  0.70934867  0.81157836  0.28252307     0.08000
H2096       H  0.71676076  0.80679744  0.32844340     0.04800
C2097       C  0.63379845  0.72501957  0.04361619    -0.21000
C2098       C  0.65486607  0.70853399  0.03934532    -0.07600
C2099       C  0.67631748  0.71159488  0.06167092     0.13300
C2100       C  0.67759065  0.73295512  0.08455094    -0.21100
C2101       C  0.65779834  0.75150319  0.08579938    -0.07600
C2102       C  0.63494175  0.74665822  0.06613453     0.13300
C2103       C  0.61150714  0.76383805  0.06822199    -0.24400
H2104       H  0.61737671  0.72250465  0.02635632     0.14500
H2105       H  0.69451571  0.73540674  0.10090267     0.14600
C2106       C  0.69873241  0.69322597  0.06035448    -0.24400
H2107       H  0.59564908  0.75665334  0.05128826     0.04800
H2108       H  0.61626840  0.78386519  0.05925285     0.08000
H2109       H  0.60390064  0.76395124  0.09562188     0.08000
H2110       H  0.71592774  0.69348323  0.56336736     0.08000
H2111       H  0.69567140  0.67721934  0.04114734     0.08000
H2112       H  0.70165860  0.68441061  0.08693297     0.04800
C2113       C  0.65411539  0.87053136  0.06517581    -0.21000
C2114       C  0.64365726  0.87727175  0.09829571    -0.07600
C2115       C  0.62583190  0.89798248  0.09989451     0.13300
C2116       C  0.61708332  0.90968558  0.06833019    -0.21100
C2117       C  0.62515726  0.90069320  0.03497762    -0.07600
C2118       C  0.64493718  0.88187002  0.03352382     0.13300
C2119       C  0.65363784  0.86787142  0.49328883    -0.24400
H2120       H  0.66745653  0.85437510  0.06374296     0.14500
H2121       H  0.60149296  0.92364760  0.06958164     0.14600
C2122       C  0.61388519  0.90575589  0.13465017    -0.24400
H2123       H  0.66977068  0.85394369  0.49661600     0.04800
H2124       H  0.65978106  0.88318997  0.47423423     0.08000
H2125       H  0.63707674  0.85705451  0.48209819     0.08000
H2126       H  0.62914431  0.91163088  0.15350619     0.08000
H2127       H  0.60303828  0.88903002  0.14575751     0.08000
H2128       H  0.60031794  0.92227376  0.13152836     0.04800
C2129       C  0.62968999  0.70840685  0.16920872    -0.21000
C2130       C  0.61534560  0.72853696  0.18442653    -0.07600
C2131       C  0.59095324  0.72327909  0.19877060     0.13300
C2132       C  0.58203570  0.69759821  0.19974735    -0.21100
C2133       C  0.59669663  0.67695618  0.18574848    -0.07600
C2134       C  0.62058265  0.68269991  0.16907630     0.13300
C2135       C  0.63652027  0.66232171  0.15053762    -0.24400
H2136       H  0.64804728  0.71296849  0.15690671     0.14500
H2137       H  0.56352330  0.69372230  0.21195069     0.14600
C2138       C  0.57428401  0.74475070  0.21266925    -0.24400
H2139       H  0.65355858  0.67095433  0.13704931     0.04800
H2140       H  0.62476801  0.65249477  0.13002405     0.08000
H2141       H  0.64374914  0.64781548  0.16986682     0.08000
H2142       H  0.56959783  0.75781772  0.19025674     0.08000
H2143       H  0.58461307  0.75573387  0.23354158     0.08000
H2144       H  0.55595799  0.73730131  0.22404693     0.04800
C2145       C  0.93001001  0.87181745  0.31985031    -0.21000
C2146       C  0.92729133  0.84477042  0.32414517    -0.07600
C2147       C  0.94978993  0.82915345  0.32480777     0.13300
C2148       C  0.97399010  0.84092802  0.32029025    -0.21100
C2149       C  0.97641405  0.86792202  0.31648600    -0.07600
C2150       C  0.95413557  0.88361173  0.31648307     0.13300
C2151       C  0.95544497  0.91272952  0.31140783    -0.24400
H2152       H  0.91310106  0.88401997  0.31897354     0.14500
H2153       H  0.99120027  0.82903773  0.31999381     0.14600
C2154       C  0.94871830  0.80018355  0.33004389    -0.24400
H2155       H  0.93602861  0.92168231  0.31061280     0.04800
H2156       H  0.96525560  0.91735850  0.28598963     0.08000
H2157       H  0.96600074  0.92176563  0.33372237     0.08000
H2158       H  0.93638361  0.79120191  0.30945688     0.08000
H2159       H  0.94104336  0.79598976  0.35692850     0.08000
H2160       H  0.96804911  0.79110846  0.32819920     0.04800
C2161       C  0.84344222  0.86510482  0.44546587    -0.21000
C2162       C  0.84902485  0.87463665  0.41126387    -0.07600
C2163       C  0.86397595  0.89756233  0.40831569     0.13300
C2164       C  0.87586260  0.90807196  0.43878468    -0.21100
C2165       C  0.87288994  0.89637329  0.47234332    -0.07600
C2166       C  0.85531858  0.87551423  0.47584851     0.13300
C2167       C  0.85476036  0.86975283  0.00751018    -0.24400
H2168       H  0.83218906  0.84741942  0.44799954     0.14500
H2169       H  0.88955333  0.92385942  0.43578526     0.14600
C2170       C  0.86933554  0.90947418  0.37258265    -0.24400
H2171       H  0.83796729  0.85643036  0.00598129     0.04800
H2172       H  0.85034540  0.88508877  0.02726049     0.08000
H2173       H  0.87152546  0.85816950  0.01634050     0.08000
H2174       H  0.85093270  0.91525700  0.36002469     0.08000
H2175       H  0.87918325  0.89517502  0.35539391     0.08000
H2176       H  0.88175221  0.92700600  0.37460450     0.04800
C2177       C  0.86799677  0.77443336  0.21729977    -0.21000
C2178       C  0.85320924  0.79705346  0.21453753    -0.07600
C2179       C  0.83522121  0.79914000  0.18695927     0.13300
C2180       C  0.83017378  0.77746786  0.16552550    -0.21100
C2181       C  0.84255358  0.75339925  0.17119663    -0.07600
C2182       C  0.86244782  0.75227375  0.19706100     0.13300
C2183       C  0.87750809  0.72787532  0.20500721    -0.24400
H2184       H  0.88159649  0.77289570  0.23895428     0.14500
H2185       H  0.81591575  0.77928260  0.14481724     0.14600
C2186       C  0.82012473  0.82386964  0.18196883    -0.24400
H2187       H  0.89076506  0.73046470  0.22774033     0.04800
H2188       H  0.88958215  0.72256359  0.18191126     0.08000
H2189       H  0.86417954  0.71174881  0.21191317     0.08000
H2190       H  0.83358964  0.84034832  0.17746561     0.08000
H2191       H  0.80832893  0.82793139  0.20589625     0.08000
H2192       H  0.80701299  0.82262038  0.15887440     0.04800
C2193       C  0.83004015  0.72887167  0.41055907    -0.21000
C2194       C  0.81857902  0.75357588  0.41390587    -0.07600
C2195       C  0.80903167  0.76180172  0.44670893     0.13300
C2196       C  0.81386986  0.74655407  0.47639205    -0.21100
C2197       C  0.82830678  0.72342402  0.47409252    -0.07600
C2198       C  0.83516860  0.71357481  0.44062507     0.13300
C2199       C  0.88276615  0.73592073  0.98112905    -0.24400
H2200       H  0.83735384  0.72276869  0.38494386     0.14500
H2201       H  0.80766329  0.75369517  0.50203028     0.14600
C2202       C  0.79469245  0.78713243  0.45059532    -0.24400
H2203       H  0.89911236  0.73613077  0.96210699     0.04800
H2204       H  0.88523475  0.71883290  0.99878532     0.08000
H2205       H  0.88355792  0.75382294  0.99743809     0.08000
H2206       H  0.77769475  0.78707732  0.43288422     0.08000
H2207       H  0.80729423  0.80380295  0.44356368     0.08000
H2208       H  0.78780419  0.79009249  0.47819234     0.04800
C2209       C  0.76498602  0.80241095  0.25286344    -0.21000
C2210       C  0.77059972  0.82555568  0.27108425    -0.07600
C2211       C  0.75809147  0.84860709  0.26025834     0.13300
C2212       C  0.73910038  0.84751338  0.23357709    -0.21100
C2213       C  0.73264503  0.82407606  0.21619021    -0.07600
C2214       C  0.74673915  0.80135777  0.22538705     0.13300
C2215       C  0.74238573  0.77552299  0.20758859    -0.24400
H2216       H  0.77531322  0.78485018  0.25987388     0.14500
H2217       H  0.72858986  0.86506305  0.22702400     0.14600
C2218       C  0.76402220  0.87422681  0.27765491    -0.24400
H2219       H  0.75643187  0.76062268  0.21647252     0.04800
H2220       H  0.74459878  0.77765815  0.17845015     0.08000
H2221       H  0.72302888  0.76799119  0.21431027     0.08000
H2222       H  0.78432549  0.87975115  0.27247811     0.08000
H2223       H  0.76076397  0.87262544  0.30668126     0.08000
H2224       H  0.75164844  0.89010364  0.26731174     0.04800
C2225       C  0.87012543  0.71039273  0.29650497    -0.21000
C2226       C  0.88174130  0.72809748  0.31980800    -0.07600
C2227       C  0.90411277  0.72018935  0.33856045     0.13300
C2228       C  0.91460964  0.69545275  0.33228373    -0.21100
C2229       C  0.90270239  0.67798580  0.30927150    -0.07600
C2230       C  0.88012888  0.68543055  0.29135831     0.13300
C2231       C  0.86674917  0.66723416  0.26630118    -0.24400
H2232       H  0.85280003  0.71590665  0.28250987     0.14500
H2233       H  0.93190696  0.68942916  0.34599701     0.14600
C2234       C  0.91724756  0.73740469  0.36511146    -0.24400
H2235       H  0.84960148  0.67631463  0.25395390     0.04800
H2236       H  0.86016383  0.64975745  0.28107441     0.08000
H2237       H  0.88017041  0.66146617  0.24477663     0.08000
H2238       H  0.90424162  0.74114794  0.38792078     0.08000
H2239       H  0.92264337  0.75591267  0.35215385     0.08000
H2240       H  0.93505608  0.72842758  0.37572755     0.04800
O2241       O  0.84010103  0.79983900  0.89780793    -0.82500
C2242       C  0.84390329  0.81016440  0.75211511     0.96800
O2243       O  0.82569730  0.79998382  0.76911897    -0.71600
O2244       O  0.84908822  0.76540236  0.80821201    -0.75200
Al2245     Al  0.82351433  0.79096351  0.81737239     1.49000
C2246       C  0.86635001  0.75803725  0.82944579     0.92100
O2247       O  0.89741118  0.81436975  0.83985482    -0.81500
O2248       O  0.84060345  0.86513136  0.85135152    -0.75000
Al2249     Al  0.86740519  0.80777565  0.86675939     1.90100
O2250       O  0.88463491  0.85111034  0.81660488    -0.74100
O2251       O  0.81276554  0.84676382  0.79464988    -0.73900
O2252       O  0.85765459  0.82799688  0.76543867    -0.79600
O2253       O  0.79518944  0.81418080  0.82354657    -0.77800
O2254       O  0.84638662  0.81476508  0.83134190    -1.13900
O2255       O  0.81756551  0.77521609  0.86295381    -0.73100
C2256       C  0.82725417  0.77940759  0.89295882     0.97600
C2257       C  0.90245671  0.83588861  0.82569928     0.94000
Al2258     Al  0.84855425  0.84544748  0.80890405     1.55600
O2259       O  0.87266390  0.77219375  0.85514058    -0.77800
C2260       C  0.79322816  0.83287248  0.80161800     0.98200
C2261       C  0.85328510  0.86228085  0.87991052     0.93000
O2262       O  0.86639528  0.84198152  0.88553661    -0.83100
O2263       O  0.66090316  0.79947411  0.60360051    -0.82500
C2264       C  0.66701879  0.80918697  0.75017808     0.96800
O2265       O  0.68256467  0.79710460  0.73063778    -0.71600
O2266       O  0.65598101  0.76350522  0.69348233    -0.75200
Al2267     Al  0.68161086  0.78887825  0.68192695     1.49000
C2268       C  0.63810186  0.75645941  0.67306574     0.92100
O2269       O  0.60716059  0.81346179  0.66765186    -0.81500
O2270       O  0.66408435  0.86317685  0.64923856    -0.75000
Al2271     Al  0.63539364  0.80688166  0.63745234     1.90100
O2272       O  0.62204122  0.84951251  0.68994101    -0.74100
O2273       O  0.69473829  0.84469800  0.70247871    -0.73900
O2274       O  0.65250214  0.82685707  0.73784655    -0.79600
O2275       O  0.71012549  0.81169533  0.67294129    -0.77800
O2276       O  0.65849456  0.81314176  0.67071121    -1.13900
O2277       O  0.68469676  0.77388809  0.63542255    -0.73100
C2278       C  0.67368089  0.77888002  0.60642168     0.97600
C2279       C  0.60323170  0.83490519  0.68255292     0.94000
Al2280     Al  0.65842728  0.84373632  0.69290924     1.55600
O2281       O  0.63049984  0.77101299  0.64837966    -0.77800
C2282       C  0.71366869  0.83055598  0.69401521     0.98200
C2283       C  0.64983025  0.86068462  0.62213081     0.93000
O2284       O  0.63529591  0.84118414  0.61879107    -0.83100
O2285       O  0.37609047  0.83790541  0.87445121    -0.82500
C2286       C  0.33978997  0.80076434  0.50607336     0.96800
O2287       O  0.35806719  0.82158078  0.99275394    -0.71600
O2288       O  0.38631827  0.84881271  0.94469113    -0.75200
Al2289     Al  0.35091007  0.83822130  0.94761068     1.49000
C2290       C  0.40658096  0.83611405  0.93873274     0.92100
O2291       O  0.38801724  0.76878153  0.90588777    -0.81500
O2292       O  0.33107513  0.76850169  0.88794671    -0.75000
Al2293     Al  0.37956528  0.80375133  0.89383290     1.90100
O2294       O  0.35918944  0.75787193  0.94549607    -0.74100
O2295       O  0.30183100  0.80172218  0.92842950    -0.73900
O2296       O  0.33172472  0.78845910  0.98365521    -0.79600
O2297       O  0.31467401  0.83555591  0.95804101    -0.77800
O2298       O  0.35415408  0.80778924  0.92510619    -1.13900
O2299       O  0.34403249  0.85672506  0.90337126    -0.73100
C2300       C  0.35949450  0.85580598  0.87699261     0.97600
C2301       C  0.37905708  0.75269798  0.92787680     0.94000
Al2302     Al  0.33269567  0.78168139  0.93507730     1.55600
O2303       O  0.40516948  0.81366393  0.92612165    -0.77800
C2304       C  0.29695900  0.81972293  0.95041514     0.98200
C2305       C  0.34377060  0.77283295  0.85986756     0.93000
O2306       O  0.35783677  0.79260912  0.85746980    -0.83100
O2307       O  0.12322637  0.83996743  0.61483639    -0.82500
C2308       C  0.16420599  0.80145413  0.99813944     0.96800
O2309       O  0.15059229  0.82523813  0.50098618    -0.71600
O2310       O  0.12085679  0.85563804  0.54492182    -0.75200
Al2311     Al  0.15487544  0.84182084  0.54674273     1.49000
C2312       C  0.09989527  0.84376582  0.54430532     0.92100
O2313       O  0.10977238  0.77447840  0.57129131    -0.81500
O2314       O  0.17084055  0.77685594  0.61307012    -0.75000
Al2315     Al  0.11884660  0.80713761  0.59043774     1.90100
O2316       O  0.14685669  0.75846841  0.55537162    -0.74100
O2317       O  0.20148459  0.80587957  0.57155504    -0.73900
O2318       O  0.17372449  0.78988048  0.51473593    -0.79600
O2319       O  0.19074331  0.83886681  0.53960497    -0.77800
O2320       O  0.14856811  0.81104480  0.56772208    -1.13900
O2321       O  0.15878437  0.85843431  0.59287197    -0.73100
C2322       C  0.14116066  0.85687826  0.61674678     0.97600
C2323       C  0.12297991  0.75600539  0.55961818     0.94000
Al2324     Al  0.17129979  0.78522843  0.56414402     1.55600
O2325       O  0.09903969  0.82049653  0.55326295    -0.77800
C2326       C  0.20762055  0.82322103  0.54940238     0.98200
C2327       C  0.15278263  0.77806024  0.63554398     0.93000
O2328       O  0.13288441  0.79120535  0.63016251    -0.83100
O2329       O  0.34830208  0.70940246  0.61021009    -0.82500
C2330       C  0.34428856  0.69400721  0.75525070     0.96800
O2331       O  0.32604899  0.70341259  0.73776805    -0.71600
O2332       O  0.35052051  0.73932613  0.70115781    -0.75200
Al2333     Al  0.32569188  0.71317758  0.68972448     1.49000
C2334       C  0.37002646  0.74653485  0.68360746     0.92100
O2335       O  0.40204016  0.68860932  0.67030874    -0.81500
O2336       O  0.34499398  0.64040479  0.65315795    -0.75000
Al2337     Al  0.37293274  0.69808563  0.64287719     1.90100
O2338       O  0.38687801  0.65279603  0.69211522    -0.74100
O2339       O  0.31544932  0.65691038  0.70936252    -0.73900
O2340       O  0.35864108  0.67636938  0.74218993    -0.79600
O2341       O  0.29725163  0.68940833  0.68194677    -0.77800
O2342       O  0.34975739  0.69012142  0.67600942    -1.13900
O2343       O  0.32111574  0.72962815  0.64466278    -0.73100
C2344       C  0.33314325  0.72795419  0.61573030     0.97600
C2345       C  0.40581364  0.66675390  0.68424756     0.94000
Al2346     Al  0.35118725  0.65912364  0.69734320     1.55600
O2347       O  0.37886114  0.73239844  0.65917745    -0.77800
C2348       C  0.29541084  0.66964116  0.70234739     0.98200
C2349       C  0.35771611  0.64443343  0.62456984     0.93000
O2350       O  0.37088991  0.66496676  0.62036912    -0.83100
O2351       O  0.16382594  0.70159148  0.90101471    -0.82500
C2352       C  0.16089488  0.71082608  0.75715816     0.96800
O2353       O  0.18030087  0.71375910  0.77596165    -0.71600
O2354       O  0.16222286  0.74552510  0.82219630    -0.75200
Al2355     Al  0.18327666  0.71535348  0.82457336     1.49000
C2356       C  0.14328935  0.75258828  0.84080213     0.92100
O2357       O  0.10391946  0.69907024  0.84677586    -0.81500
O2358       O  0.15244061  0.64194935  0.84105530    -0.75000
Al2359     Al  0.13571790  0.70021014  0.87072844     1.90100
O2360       O  0.11259457  0.66767379  0.81020191    -0.74100
O2361       O  0.18368854  0.66250340  0.78852728    -0.73900
O2362       O  0.14395419  0.69389206  0.76571146    -0.79600
O2363       O  0.20796709  0.68685584  0.82220027    -0.77800
O2364       O  0.15595303  0.69448974  0.83346429    -1.13900
O2365       O  0.19180210  0.72427987  0.87279822    -0.73100
C2366       C  0.17810230  0.72104915  0.90004690     0.97600
C2367       C  0.09652063  0.68140658  0.82646841     0.94000
Al2368     Al  0.14886076  0.66854203  0.80389716     1.55600
O2369       O  0.13376755  0.73717528  0.86354918    -0.77800
C2370       C  0.20575136  0.67091559  0.79635664     0.98200
C2371       C  0.14240414  0.64350699  0.87200240     0.93000
O2372       O  0.13379346  0.66479785  0.88362607    -0.83100
O2373       O  0.90874331  0.38139511  0.50455341    -0.82500
C2374       C  0.94476387  0.41063214  0.87314700     0.96800
O2375       O  0.92514184  0.40004314  0.88748706    -0.71600
O2376       O  0.89877481  0.37413480  0.93857224    -0.75200
Al2377     Al  0.91337402  0.40857829  0.93469527     1.49000
C2378       C  0.90954624  0.35229448  0.94045623     0.92100
O2379       O  0.98028468  0.36312699  0.96175660    -0.81500
O2380       O  0.98878420  0.42149873  0.98316439    -0.75000
Al2381     Al  0.94876052  0.37491021  0.98106707     1.90100
O2382       O  0.99215361  0.39345313  0.92411615    -0.74100
O2383       O  0.95517095  0.45408345  0.94926615    -0.73900
O2384       O  0.96063567  0.42383111  0.89079953    -0.79600
O2385       O  0.91887421  0.44487543  0.92408781    -0.77800
O2386       O  0.94480583  0.40183348  0.95190148    -1.13900
O2387       O  0.90007172  0.41684188  0.98152017    -0.73100
C2388       C  0.90214510  0.40135077  0.00790469     0.97600
C2389       C  0.99628998  0.37243675  0.94013804     0.94000
Al2390     Al  0.97152691  0.42158695  0.93839332     1.55600
O2391       O  0.93244564  0.35078158  0.95043191    -0.77800
C2392       C  0.93653750  0.46113935  0.93003350     0.98200
C2393       C  0.97541724  0.41078056  0.51452767     0.93000
O2394       O  0.95531946  0.39741777  0.51848986    -0.83100
O2395       O  0.91583075  0.62390766  0.74642961    -0.82500
C2396       C  0.94381198  0.59963487  0.88161683     0.96800
O2397       O  0.92432482  0.60983150  0.86699352    -0.71600
O2398       O  0.90029114  0.63561885  0.81474390    -0.75200
Al2399     Al  0.91278735  0.60054342  0.82039333     1.49000
C2400       C  0.91213363  0.65676169  0.80959575     0.92100
O2401       O  0.98131290  0.64190128  0.78227815    -0.81500
O2402       O  0.98797135  0.58533364  0.77093983    -0.75000
Al2403     Al  0.94804488  0.63020041  0.76855662     1.90100
O2404       O  0.99135243  0.61784282  0.82773305    -0.74100
O2405       O  0.95525296  0.55443039  0.81031782    -0.73900
O2406       O  0.96094098  0.58803044  0.86410734    -0.79600
O2407       O  0.91785346  0.56467584  0.83255395    -0.77800
O2408       O  0.94416832  0.60596076  0.80177865    -1.13900
O2409       O  0.89828140  0.59080946  0.77491009    -0.73100
C2410       C  0.89952181  0.60570371  0.74794564     0.97600
C2411       C  0.99612192  0.63686181  0.80761504     0.94000
Al2412     Al  0.97136468  0.58777820  0.81672827     1.55600
O2413       O  0.93473994  0.65672844  0.79772101    -0.77800
C2414       C  0.93567264  0.54829613  0.82877813     0.98200
C2415       C  0.98251888  0.59428331  0.74059811     0.93000
O2416       O  0.96196114  0.60669894  0.73597769    -0.83100
O2417       O  0.59243887  0.62513210  0.74861659    -0.82500
C2418       C  0.55796769  0.59293219  0.62009283     0.96800
O2419       O  0.57745860  0.60571319  0.63065248    -0.71600
O2420       O  0.60345596  0.63521854  0.67743206    -0.75200
Al2421     Al  0.59403336  0.59899967  0.67584205     1.49000
C2422       C  0.59048529  0.65546339  0.68325207     0.92100
O2423       O  0.52431313  0.63500992  0.71644882    -0.81500
O2424       O  0.52444457  0.57775419  0.73609077    -0.75000
Al2425     Al  0.55886482  0.62744103  0.72902304     1.90100
O2426       O  0.51402791  0.60531385  0.67749417    -0.74100
O2427       O  0.55913200  0.54915141  0.69699381    -0.73900
O2428       O  0.54571419  0.57792770  0.64037780    -0.79600
O2429       O  0.59225264  0.56173323  0.66598520    -0.77800
O2430       O  0.56365112  0.60175965  0.69827042    -1.13900
O2431       O  0.61253433  0.59322122  0.72066140    -0.73100
C2432       C  0.61091029  0.60923981  0.74658008     0.97600
C2433       C  0.50884118  0.62570700  0.69434318     0.94000
Al2434     Al  0.53829974  0.57927914  0.68887877     1.55600
O2435       O  0.56841336  0.65369365  0.69657086    -0.77800
C2436       C  0.57627020  0.54404770  0.67398804     0.98200
C2437       C  0.52886191  0.59048834  0.76404856     0.93000
O2438       O  0.54826705  0.60499172  0.76559176    -0.83100
O2439       O  0.58072373  0.38115224  0.99089137    -0.82500
C2440       C  0.53844620  0.41399588  0.61806892     0.96800
O2441       O  0.56179243  0.41374401  0.60830121    -0.71600
O2442       O  0.58175103  0.37487150  0.57301318    -0.75200
Al2443     Al  0.57701751  0.41070317  0.56127149     1.49000
C2444       C  0.58100286  0.35585769  0.55231394     0.92100
O2445       O  0.51857197  0.36210691  0.53386532    -0.81500
O2446       O  0.51228375  0.43533689  0.50094544    -0.75000
Al2447     Al  0.54404093  0.38074408  0.50653536     1.90100
O2448       O  0.49533440  0.39696500  0.54483299    -0.74100
O2449       O  0.53673605  0.45674337  0.55927783    -0.73900
O2450       O  0.52044570  0.41635893  0.59636160    -0.79600
O2451       O  0.57766708  0.44798830  0.55653670    -0.77800
O2452       O  0.54690431  0.40585846  0.53901878    -1.13900
O2453       O  0.59737304  0.40734247  0.51654703    -0.73100
C2454       C  0.59965831  0.39646149  0.99411928     0.97600
C2455       C  0.49720931  0.37258413  0.54167306     0.94000
Al2456     Al  0.51902383  0.42492800  0.54922730     1.55600
O2457       O  0.56930390  0.35770038  0.52356785    -0.77800
C2458       C  0.55968502  0.46320044  0.56561942     0.98200
C2459       C  0.51569715  0.41506818  0.98731454     0.93000
O2460       O  0.53482114  0.40071917  0.98121025    -0.83100
O2461       O  0.84015148  0.20228718  0.85037106    -0.82500
C2462       C  0.83900241  0.20293015  0.49472682     0.96800
O2463       O  0.82193638  0.21268830  0.97572749    -0.71600
O2464       O  0.84150780  0.24586905  0.93148699    -0.75200
Al2465     Al  0.81999097  0.21593318  0.92676540     1.49000
C2466       C  0.85984017  0.25334591  0.91181115     0.92100
O2467       O  0.89870123  0.20041895  0.90772278    -0.81500
O2468       O  0.84883287  0.14282912  0.90730553    -0.75000
Al2469     Al  0.86775458  0.20132995  0.88158339     1.90100
O2470       O  0.88925334  0.16633527  0.93979358    -0.74100
O2471       O  0.81792128  0.16217268  0.96028351    -0.73900
O2472       O  0.85795336  0.19144782  0.98600460    -0.79600
O2473       O  0.79495326  0.18759429  0.92613323    -0.77800
O2474       O  0.84694492  0.19494255  0.91794399    -1.13900
O2475       O  0.81308445  0.22633164  0.87837064    -0.73100
C2476       C  0.82566919  0.22156367  0.85049009     0.97600
C2477       C  0.90562030  0.18101923  0.92548233     0.94000
Al2478     Al  0.85295754  0.16781758  0.94611291     1.55600
O2479       O  0.86884136  0.23822713  0.88858143    -0.77800
C2480       C  0.79618859  0.17061986  0.95098380     0.98200
C2481       C  0.86037403  0.14500711  0.87745640     0.93000
O2482       O  0.87075499  0.16616400  0.86815476    -0.83100
O2483       O  0.65848918  0.23400142  0.63665381    -0.82500
C2484       C  0.66013350  0.19577108  0.98874232     0.96800
O2485       O  0.66599376  0.22967811  0.51940742    -0.71600
O2486       O  0.65727223  0.25749207  0.57276962    -0.75200
Al2487     Al  0.67977979  0.22846645  0.56360895     1.49000
C2488       C  0.63313386  0.25854671  0.57709824     0.92100
O2489       O  0.60763960  0.18955076  0.59723979    -0.81500
O2490       O  0.64838519  0.15357008  0.59972044    -0.75000
Al2491     Al  0.63597629  0.21084998  0.61306686     1.90100
O2492       O  0.62102173  0.17805322  0.54497329    -0.74100
O2493       O  0.69178637  0.16549265  0.56027328    -0.73900
O2494       O  0.66278215  0.18804509  0.50843682    -0.79600
O2495       O  0.70647668  0.20444778  0.54745124    -0.77800
O2496       O  0.65770034  0.20404771  0.57766809    -1.13900
O2497       O  0.69556936  0.23130150  0.60868156    -0.73100
C2498       C  0.68175410  0.24062971  0.63312815     0.97600
C2499       C  0.60314057  0.18002881  0.56712281     0.94000
Al2500     Al  0.65599772  0.17365881  0.55547017     1.55600
O2501       O  0.62071674  0.23898964  0.58818250    -0.77800
C2502       C  0.70872034  0.17985715  0.54590618     0.98200
C2503       C  0.64725194  0.15994167  0.63254255     0.93000
O2504       O  0.64917804  0.18359249  0.64109979    -0.83100
O2505       O  0.08038526  0.11798169  0.50518417    -0.82500
C2506       C  0.05841131  0.09711230  0.86774273     0.96800
O2507       O  0.07627370  0.10859312  0.88435663    -0.71600
O2508       O  0.09773879  0.13439617  0.93812746    -0.75200
Al2509     Al  0.08747127  0.09879832  0.93140184     1.49000
C2510       C  0.08525579  0.15480228  0.94507767     0.92100
O2511       O  0.01650465  0.13556124  0.96511563    -0.81500
O2512       O  0.01041104  0.07917210  0.97368156    -0.75000
Al2513     Al  0.04891100  0.12475655  0.98286374     1.90100
O2514       O  0.01004310  0.11214153  0.91783239    -0.74100
O2515       O  0.04711097  0.05033583  0.93987570    -0.73900
O2516       O  0.04262333  0.08262821  0.88365907    -0.79600
O2517       O  0.08455246  0.06241099  0.91885117    -0.77800
O2518       O  0.05546765  0.10184383  0.94868812    -1.13900
O2519       O  0.10201759  0.08960660  0.97733120    -0.73100
C2520       C  0.09904438  0.10344859  0.00504688     0.97600
C2521       C  0.00364477  0.13077759  0.93765212     0.94000
Al2522     Al  0.02995769  0.08255327  0.93066064     1.55600
O2523       O  0.06288235  0.15304701  0.95738676    -0.77800
C2524       C  0.06743055  0.04506299  0.92261152     0.98200
C2525       C  0.01453686  0.08558393  0.50327800     0.93000
O2526       O  0.03423567  0.09851298  0.51122374    -0.83100
O2527       O  0.08613491  0.87781899  0.74701137    -0.82500
C2528       C  0.05912045  0.91212964  0.87756592     0.96800
O2529       O  0.07840493  0.90037000  0.86427136    -0.71600
O2530       O  0.10298716  0.87166250  0.81521530    -0.75200
Al2531     Al  0.09110580  0.90693690  0.81674127     1.49000
C2532       C  0.09073480  0.85053902  0.81541302     0.92100
O2533       O  0.02062135  0.86555532  0.78991536    -0.81500
O2534       O  0.01809320  0.92304342  0.76594229    -0.75000
Al2535     Al  0.05400346  0.87414543  0.77194723     1.90100
O2536       O  0.01216697  0.89661736  0.82713526    -0.74100
O2537       O  0.05248100  0.95407918  0.79865087    -0.73900
O2538       O  0.04454103  0.92613738  0.85896727    -0.79600
O2539       O  0.08788436  0.94388288  0.82523221    -0.77800
O2540       O  0.05957231  0.90159891  0.79947646    -1.13900
O2541       O  0.10524847  0.91272082  0.76932221    -0.73100
C2542       C  0.10308180  0.89557831  0.74494935     0.97600
C2543       C  0.00586842  0.87573185  0.81251767     0.94000
Al2544     Al  0.03416121  0.92314460  0.81126536     1.55600
O2545       O  0.06764042  0.85007275  0.80565463    -0.77800
C2546       C  0.07082039  0.96064694  0.81858786     0.98200
C2547       C  0.02124307  0.91026862  0.73776687     0.93000
O2548       O  0.03911240  0.89381301  0.73523539    -0.83100
O2549       O  0.14955175  0.29856256  0.85340589    -0.82500
C2550       C  0.16278849  0.30605469  0.50521049     0.96800
O2551       O  0.18370487  0.29549798  0.97479938    -0.71600
O2552       O  0.15569732  0.26172564  0.94175941    -0.75200
Al2553     Al  0.17904607  0.28830309  0.92693958     1.49000
C2554       C  0.13532901  0.25485110  0.92635693     0.92100
O2555       O  0.10370884  0.31117644  0.92770940    -0.81500
O2556       O  0.15752016  0.36168658  0.89866397    -0.75000
Al2557     Al  0.12823889  0.30540105  0.89218942     1.90100
O2558       O  0.11910689  0.34809039  0.94578127    -0.74100
O2559       O  0.19254613  0.34446595  0.94692046    -0.73900
O2560       O  0.15526005  0.32551049  0.98930520    -0.79600
O2561       O  0.20602470  0.31222825  0.91462840    -0.77800
O2562       O  0.15447122  0.31198339  0.92077308    -1.13900
O2563       O  0.17827157  0.27481294  0.87998445    -0.73100
C2564       C  0.16450355  0.27945219  0.85331808     0.97600
C2565       C  0.10003881  0.33333795  0.94047847     0.94000
Al2566     Al  0.15591799  0.34257457  0.94316254     1.55600
O2567       O  0.12485605  0.26958777  0.90397150    -0.77800
C2568       C  0.21084359  0.33030463  0.93651214     0.98200
C2569       C  0.14113026  0.35898760  0.87400222     0.93000
O2570       O  0.12588574  0.33985609  0.87378134    -0.83100
O2571       O  0.34952402  0.27541095  0.64628171    -0.82500
C2572       C  0.33630456  0.28882343  0.00243421     0.96800
O2573       O  0.34349746  0.27114424  0.52908006    -0.71600
O2574       O  0.35330271  0.24686313  0.58631146    -0.75200
Al2575     Al  0.32812620  0.27218451  0.57336949     1.49000
C2576       C  0.37722155  0.24816414  0.59125085     0.92100
O2577       O  0.39388967  0.32098428  0.59735011    -0.81500
O2578       O  0.34858647  0.35300583  0.59820443    -0.75000
Al2579     Al  0.36900883  0.29846758  0.61819778     1.90100
O2580       O  0.37834102  0.32935123  0.54477039    -0.74100
O2581       O  0.30619055  0.33201061  0.56505616    -0.73900
O2582       O  0.33569844  0.31094105  0.51225481    -0.79600
O2583       O  0.29837682  0.29077251  0.55588602    -0.77800
O2584       O  0.34627663  0.30020386  0.58342581    -1.13900
O2585       O  0.31271157  0.27026668  0.61881960    -0.73100
C2586       C  0.32772345  0.26473788  0.64401205     0.97600
C2587       C  0.39707642  0.32863458  0.56588860     0.94000
Al2588     Al  0.34282091  0.32919709  0.55736711     1.55600
O2589       O  0.38761827  0.26996595  0.59730651    -0.77800
C2590       C  0.29161999  0.31438077  0.55281432     0.98200
C2591       C  0.34998907  0.34842448  0.63150242     0.93000
O2592       O  0.35304602  0.32556018  0.64265300    -0.83100
O2593       O  0.03421618  0.59857269  0.97922750    -0.82500
C2594       C  0.04832098  0.59475456  0.62033837     0.96800
O2595       O  0.03575376  0.57833058  0.60293940    -0.71600
O2596       O  0.00415482  0.60191149  0.56068405    -0.75200
Al2597     Al  0.02855676  0.57512796  0.55444137     1.49000
C2598       C  0.99888853  0.62025856  0.53973258     0.92100
O2599       O  0.05849564  0.64909802  0.52935000    -0.81500
O2600       O  0.10338992  0.58783528  0.52083743    -0.75000
Al2601     Al  0.04886249  0.61869024  0.50393813     1.90100
O2602       O  0.09192758  0.63295152  0.55560112    -0.74100
O2603       O  0.08300680  0.56125035  0.57838111    -0.73900
O2604       O  0.06710668  0.60709942  0.60675055    -0.79600
O2605       O  0.04968588  0.54484803  0.55133810    -0.77800
O2606       O  0.05370299  0.59692293  0.54021977    -1.13900
O2607       O  0.01414753  0.56859884  0.50891831    -0.73100
C2608       C  0.01405065  0.58582887  0.98581576     0.97600
C2609       C  0.07933777  0.65245873  0.54548337     0.94000
Al2610     Al  0.08384020  0.59710373  0.56311984     1.55600
O2611       O  0.01440752  0.62730965  0.51588306    -0.77800
C2612       C  0.06805525  0.54229975  0.57302757     0.98200
C2613       C  0.10200733  0.60037998  0.49167722     0.93000
O2614       O  0.08060156  0.61661645  0.98781043    -0.83100
O2615       O  0.03341002  0.39518099  0.76230769    -0.82500
C2616       C  0.05151136  0.41065007  0.61943152     0.96800
O2617       O  0.03888931  0.42629089  0.63821486    -0.71600
O2618       O  0.00614335  0.39566720  0.66962456    -0.75200
Al2619     Al  0.02804746  0.42255806  0.68562802     1.49000
C2620       C  0.99978676  0.37502810  0.68544716     0.92100
O2621       O  0.06063711  0.34877316  0.69510484    -0.81500
O2622       O  0.09999774  0.41114521  0.72399266    -0.75000
Al2623     Al  0.04763533  0.37422232  0.72672474     1.90100
O2624       O  0.09551870  0.36940672  0.68048383    -0.74100
O2625       O  0.08192738  0.44144615  0.66994673    -0.73900
O2626       O  0.07028854  0.39777493  0.63196606    -0.79600
O2627       O  0.04730273  0.45320935  0.69830092    -0.77800
O2628       O  0.05328590  0.40066596  0.69746023    -1.13900
O2629       O  0.01053902  0.42202862  0.73063557    -0.73100
C2630       C  0.01368906  0.40896698  0.75870968     0.97600
C2631       C  0.08332763  0.34839193  0.68370521     0.94000
Al2632     Al  0.08448096  0.40478112  0.67830730     1.55600
O2633       O  0.01416600  0.36559178  0.70910646    -0.77800
C2634       C  0.06625673  0.45912277  0.67844936     0.98200
C2635       C  0.09749805  0.39550834  0.75009353     0.93000
O2636       O  0.07986849  0.37839669  0.75069050    -0.83100
O2637       O  0.96535495  0.90345209  0.98240688    -0.82500
C2638       C  0.95163940  0.91474079  0.62108210     0.96800
O2639       O  0.96161455  0.93196531  0.60164375    -0.71600
O2640       O  0.99290448  0.90737030  0.56060971    -0.75200
Al2641     Al  0.96723168  0.93235339  0.55216277     1.49000
C2642       C  0.99952186  0.88918027  0.54038405     0.92100
O2643       O  0.94301983  0.85616869  0.53933975    -0.81500
O2644       O  0.89275696  0.91342150  0.52592584    -0.75000
Al2645     Al  0.94833660  0.88503134  0.50901378     1.90100
O2646       O  0.90827265  0.87053207  0.56495863    -0.74100
O2647       O  0.91324686  0.94459791  0.57915790    -0.73900
O2648       O  0.93294232  0.90095894  0.61047244    -0.79600
O2649       O  0.94408808  0.96085282  0.54646836    -0.77800
O2650       O  0.94316920  0.90844551  0.54270842    -1.13900
O2651       O  0.97993046  0.93629714  0.50433507    -0.73100
C2652       C  0.98628456  0.91519318  0.98718949     0.97600
C2653       C  0.92310736  0.85189313  0.55735450     0.94000
Al2654     Al  0.91399169  0.90763561  0.56777782     1.55600
O2655       O  0.98394051  0.88033936  0.51793825    -0.77800
C2656       C  0.92703870  0.96390078  0.57023851     0.98200
C2657       C  0.89414497  0.89906593  0.49844541     0.93000
O2658       O  0.91920863  0.88467398  0.99426928    -0.83100
O2659       O  0.97718474  0.12181042  0.75113883    -0.82500
C2660       C  0.94920716  0.09114330  0.61844758     0.96800
O2661       O  0.96827721  0.08841478  0.63833931    -0.71600
O2662       O  0.99530355  0.11653437  0.68043547    -0.75200
Al2663     Al  0.97393132  0.08688293  0.68673375     1.49000
C2664       C  0.99166684  0.14083473  0.68029775     0.92100
O2665       O  0.92249756  0.15419059  0.70837513    -0.81500
O2666       O  0.89772226  0.09976683  0.72525170    -0.75000
Al2667     Al  0.94893770  0.13322680  0.72545034     1.90100
O2668       O  0.90495717  0.13233840  0.66603909    -0.74100
O2669       O  0.91724837  0.06076784  0.68319322    -0.73900
O2670       O  0.92686648  0.09511874  0.63052888    -0.79600
O2671       O  0.95817304  0.05350102  0.68847466    -0.77800
O2672       O  0.94563534  0.10559450  0.69684289    -1.13900
O2673       O  0.98547848  0.08245799  0.73496905    -0.73100
C2674       C  0.99045331  0.10181723  0.75436535     0.97600
C2675       C  0.90814399  0.15329510  0.68215642     0.94000
Al2676     Al  0.91457047  0.09770953  0.67851533     1.55600
O2677       O  0.97139054  0.15061442  0.69316562    -0.77800
C2678       C  0.93651760  0.04652899  0.67704067     0.98200
C2679       C  0.90505504  0.10767551  0.75575563     0.93000
O2680       O  0.92688538  0.11821033  0.75995779    -0.83100
O2681       O  0.86510758  0.67105695  0.64030983    -0.82500
C2682       C  0.83705742  0.70439690  0.00167773     0.96800
O2683       O  0.83748688  0.68827508  0.51444782    -0.71600
O2684       O  0.87925115  0.66451065  0.54026031    -0.75200
Al2685     Al  0.84496607  0.66899411  0.55779072     1.49000
C2686       C  0.89964617  0.66506291  0.55803722     0.92100
O2687       O  0.89589107  0.72621677  0.58764539    -0.81500
O2688       O  0.82490858  0.72786074  0.62849808    -0.75000
Al2689     Al  0.87901428  0.69811198  0.61268117     1.90100
O2690       O  0.86134955  0.75057395  0.58643109    -0.74100
O2691       O  0.80184046  0.71034671  0.56737735    -0.73900
O2692       O  0.84195102  0.72899410  0.53161704    -0.79600
O2693       O  0.80888202  0.66870837  0.56902835    -0.77800
O2694       O  0.85237930  0.69759817  0.58322291    -1.13900
O2695       O  0.85113380  0.64504952  0.59793654    -0.73100
C2696       C  0.85764971  0.64895976  0.63010717     0.97600
C2697       C  0.88544094  0.74835747  0.58448889     0.94000
Al2698     Al  0.83388488  0.72658749  0.57911990     1.55600
O2699       O  0.90009710  0.67508479  0.58812759    -0.77800
C2700       C  0.79456898  0.68751808  0.56021158     0.98200
C2701       C  0.84314297  0.73152371  0.65023014     0.93000
O2702       O  0.86468891  0.72140993  0.64476520    -0.83100
O2703       O  0.63235179  0.67014830  0.86947052    -0.82500
C2704       C  0.66343961  0.69978017  0.50485740     0.96800
O2705       O  0.64757463  0.68040192  0.98940495    -0.71600
O2706       O  0.62101958  0.65541196  0.93909920    -0.75200
Al2707     Al  0.65603491  0.66635682  0.94334001     1.49000
C2708       C  0.60066111  0.66821085  0.93473971     0.92100
O2709       O  0.61861572  0.73696160  0.90805044    -0.81500
O2710       O  0.67615289  0.73983825  0.89091501    -0.75000
Al2711     Al  0.62784719  0.70318173  0.89239525     1.90100
O2712       O  0.64687259  0.74744899  0.94827475    -0.74100
O2713       O  0.70452327  0.70462735  0.92896940    -0.73900
O2714       O  0.67346473  0.71448182  0.98495846    -0.79600
O2715       O  0.69191623  0.66907191  0.95504146    -0.77800
O2716       O  0.65271697  0.69799576  0.92371800    -1.13900
O2717       O  0.66387092  0.65008101  0.89767284    -0.73100
C2718       C  0.64882991  0.65202606  0.87102959     0.97600
C2719       C  0.62715632  0.75264871  0.93055616     0.94000
Al2720     Al  0.67358351  0.72399810  0.93676179     1.55600
O2721       O  0.60187545  0.69093082  0.92286963    -0.77800
C2722       C  0.70925703  0.68587749  0.94980673     0.98200
C2723       C  0.66395950  0.73675990  0.86231029     0.93000
O2724       O  0.64988187  0.71715933  0.85780902    -0.83100
O2725       O  0.41940287  0.88100992  0.75759900    -0.82500
C2726       C  0.44893531  0.90854118  0.62415426     0.96800
O2727       O  0.43003869  0.89590168  0.63722464    -0.71600
O2728       O  0.40548669  0.86809761  0.68874792    -0.75200
Al2729     Al  0.41539344  0.90422212  0.68307176     1.49000
C2730       C  0.41860369  0.84788724  0.69454675     0.92100
O2731       O  0.48631301  0.86875039  0.72047486    -0.81500
O2732       O  0.48651143  0.92730277  0.73599195    -0.75000
Al2733     Al  0.45230842  0.87711624  0.73543119     1.90100
O2734       O  0.49502430  0.89737202  0.67909370    -0.74100
O2735       O  0.45094097  0.95417198  0.69838421    -0.73900
O2736       O  0.46255161  0.92339951  0.64268813    -0.79600
O2737       O  0.41722402  0.94112587  0.66995362    -0.77800
O2738       O  0.44648725  0.90182264  0.70335028    -1.13900
O2739       O  0.39886542  0.91209188  0.72829536    -0.73100
C2740       C  0.40119447  0.89730811  0.75543370     0.97600
C2741       C  0.50114363  0.87772990  0.69701888     0.94000
Al2742     Al  0.47134223  0.92376245  0.69048828     1.55600
O2743       O  0.44120936  0.84996391  0.70554969    -0.77800
C2744       C  0.43343676  0.95896466  0.67607469     0.98200
C2745       C  0.48323906  0.91601824  0.76531862     0.93000
O2746       O  0.46497690  0.90022213  0.76961396    -0.83100
O2747       O  0.41605812  0.11214442  0.99635979    -0.82500
C2748       C  0.47019042  0.08247428  0.61808136     0.96800
O2749       O  0.44593970  0.08300788  0.61310955    -0.71600
O2750       O  0.42447874  0.12802758  0.58855183    -0.75200
Al2751     Al  0.42618223  0.09316176  0.57030508     1.49000
C2752       C  0.42424367  0.14861229  0.57020765     0.92100
O2753       O  0.48197433  0.14406730  0.53788600    -0.81500
O2754       O  0.48356053  0.07184933  0.49968847    -0.75000
Al2755     Al  0.45422109  0.12664139  0.51350614     1.90100
O2756       O  0.50597339  0.10914426  0.54022264    -0.74100
O2757       O  0.46567817  0.04909547  0.56066679    -0.73900
O2758       O  0.48488278  0.09117291  0.59483567    -0.79600
O2759       O  0.42452774  0.05677850  0.55797736    -0.77800
O2760       O  0.45394897  0.10005464  0.54366046    -1.13900
O2761       O  0.40163361  0.10136977  0.53076672    -0.73100
C2762       C  0.40546181  0.10677498  0.49786011     0.97600
C2763       C  0.50377906  0.13351943  0.54176904     0.94000
Al2764     Al  0.48235451  0.08153522  0.54813997     1.55600
O2765       O  0.43146906  0.14830775  0.53847704    -0.77800
C2766       C  0.44281587  0.04183224  0.56696598     0.98200
C2767       C  0.47158669  0.08331611  0.99244030     0.93000
O2768       O  0.46520605  0.10695173  0.99375957    -0.83100
O2769       O  0.35196648  0.16837188  0.88915108    -0.82500
C2770       C  0.32599644  0.19333566  0.74980322     0.96800
O2771       O  0.32893685  0.17024404  0.76094197    -0.71600
O2772       O  0.36934898  0.15438171  0.79425056    -0.75200
Al2773     Al  0.33451526  0.15598179  0.80755881     1.49000
C2774       C  0.38943730  0.16059212  0.81018658     0.92100
O2775       O  0.37470420  0.22330428  0.83011066    -0.81500
O2776       O  0.30215843  0.21604280  0.86412390    -0.75000
Al2777     Al  0.36175645  0.19498970  0.85796319     1.90100
O2778       O  0.33738325  0.24171543  0.82294316    -0.74100
O2779       O  0.28563685  0.19084862  0.80365098    -0.73900
O2780       O  0.32437458  0.21254485  0.77015940    -0.79600
O2781       O  0.29819529  0.15120323  0.81408808    -0.77800
O2782       O  0.33663193  0.18753074  0.82749241    -1.13900
O2783       O  0.34055476  0.13708916  0.85248454    -0.73100
C2784       C  0.34645366  0.14488566  0.88355395     0.97600
C2785       C  0.36158789  0.24345361  0.82384505     0.94000
Al2786     Al  0.31421521  0.21275501  0.81656253     1.55600
O2787       O  0.38809464  0.17436112  0.83750387    -0.77800
C2788       C  0.28189267  0.16668122  0.80112655     0.98200
C2789       C  0.31815521  0.22376409  0.88707360     0.93000
O2790       O  0.34155757  0.21753043  0.88556854    -0.83100
O2791       O  0.13280562  0.16644401  0.60962504    -0.82500
C2792       C  0.15161974  0.20509618  0.74402555     0.96800
O2793       O  0.13462740  0.18974459  0.73189937    -0.71600
O2794       O  0.10558401  0.16716794  0.68225493    -0.75200
Al2795     Al  0.14142348  0.16681672  0.69181513     1.49000
C2796       C  0.09110070  0.18169457  0.66455647     0.92100
O2797       O  0.13014895  0.23731248  0.63552262    -0.81500
O2798       O  0.18798600  0.22689453  0.63270993    -0.75000
Al2799     Al  0.13324856  0.20119478  0.62536938     1.90100
O2800       O  0.15489296  0.24419412  0.68176986    -0.74100
O2801       O  0.20131904  0.18604571  0.67950957    -0.73900
O2802       O  0.17158056  0.21010112  0.72672084    -0.79600
O2803       O  0.17546676  0.15980887  0.70889812    -0.77800
O2804       O  0.15042767  0.19400954  0.66487162    -1.13900
O2805       O  0.14672495  0.14179472  0.65364637    -0.73100
C2806       C  0.13968386  0.14456712  0.62151232     0.97600
C2807       C  0.13744952  0.25155143  0.66076349     0.94000
Al2808     Al  0.17677124  0.21457986  0.67853229     1.55600
O2809       O  0.10011919  0.19891230  0.64474580    -0.77800
C2810       C  0.19793477  0.16816657  0.70279467     0.98200
C2811       C  0.17703128  0.22456387  0.60330957     0.93000
O2812       O  0.16340451  0.20482670  0.59862410    -0.83100
O2813       O  0.54280896  0.90315387  0.52237104    -0.82500
C2814       C  0.55502136  0.92004864  0.87871841     0.96800
O2815       O  0.54417902  0.93651912  0.89828509    -0.71600
O2816       O  0.51155557  0.90691069  0.93222963    -0.75200
Al2817     Al  0.53509228  0.93300217  0.94665449     1.49000
C2818       C  0.50509846  0.88712882  0.95002721     0.92100
O2819       O  0.56326974  0.85860180  0.95608348    -0.81500
O2820       O  0.60848482  0.91795366  0.97945168    -0.75000
Al2821     Al  0.55404474  0.88504669  0.98798516     1.90100
O2822       O  0.59866334  0.87618243  0.93658399    -0.74100
O2823       O  0.58908464  0.95017865  0.92685512    -0.73900
O2824       O  0.57382888  0.90660405  0.88994694    -0.79600
O2825       O  0.55629911  0.96196363  0.95908930    -0.77800
O2826       O  0.55977587  0.91027691  0.95693414    -1.13900
O2827       O  0.51913282  0.93325023  0.99237065    -0.73100
C2828       C  0.52308207  0.91703870  0.51857654     0.97600
C2829       C  0.58518147  0.85619415  0.94244267     0.94000
Al2830     Al  0.59024015  0.91268787  0.93505840     1.55600
O2831       O  0.51951079  0.87846760  0.97413873    -0.77800
C2832       C  0.57421596  0.96803159  0.93772329     0.98200
C2833       C  0.60623753  0.90239525  0.00573092     0.93000
O2834       O  0.58737837  0.88283045  0.50631719    -0.83100
O2835       O  0.52413937  0.09053713  0.72836685    -0.82500
C2836       C  0.52594976  0.10272246  0.86848100     0.96800
O2837       O  0.51263284  0.10302734  0.84128894    -0.71600
O2838       O  0.49186368  0.09835139  0.78120794    -0.75200
Al2839     Al  0.51933894  0.08077883  0.80478565     1.49000
C2840       C  0.49021222  0.12225540  0.77440265     0.92100
O2841       O  0.55836131  0.14992917  0.76640162    -0.81500
O2842       O  0.59630914  0.11166947  0.78094194    -0.75000
Al2843     Al  0.54155721  0.11856359  0.75161483     1.90100
O2844       O  0.56507591  0.14358123  0.82292167    -0.74100
O2845       O  0.58002764  0.07020382  0.82501333    -0.73900
O2846       O  0.55041510  0.10355573  0.86550985    -0.79600
O2847       O  0.54000735  0.05822727  0.83281022    -0.77800
O2848       O  0.54463348  0.10155433  0.79193593    -1.13900
O2849       O  0.52392045  0.05789164  0.76673740    -0.73100
C2850       C  0.51982903  0.06680278  0.73616663     0.97600
C2851       C  0.56379198  0.15876938  0.79666495     0.94000
Al2852     Al  0.57113917  0.10696611  0.82100694     1.55600
O2853       O  0.51012385  0.13487536  0.76594968    -0.77800
C2854       C  0.56362314  0.05475063  0.83884534     0.98200
C2855       C  0.59396312  0.10947690  0.74717883     0.93000
O2856       O  0.57223724  0.10447777  0.73416628    -0.83100
O2857       O  0.86344606  0.34027945  0.61648344    -0.82500
C2858       C  0.83705770  0.29920428  0.74440768     0.96800
O2859       O  0.85108384  0.31816426  0.73423147    -0.71600
O2860       O  0.87936308  0.34516549  0.68607752    -0.75200
Al2861     Al  0.84308517  0.33885786  0.69246827     1.49000
C2862       C  0.89763521  0.33085787  0.67584334     0.92100
O2863       O  0.86832012  0.26849645  0.63986784    -0.81500
O2864       O  0.81162456  0.27481149  0.62863128    -0.75000
Al2865     Al  0.86371862  0.30491119  0.63183030     1.90100
O2866       O  0.84101562  0.25867172  0.68209103    -0.74100
O2867       O  0.78926588  0.31027321  0.67343490    -0.73900
O2868       O  0.81920266  0.29052772  0.72545969    -0.79600
O2869       O  0.80706150  0.33979795  0.70685120    -0.77800
O2870       O  0.84120870  0.30986781  0.66656820    -1.13900
O2871       O  0.83603094  0.36107636  0.65134574    -0.73100
C2872       C  0.84955672  0.35990644  0.62298932     0.97600
C2873       C  0.85938308  0.25244831  0.66207878     0.94000
Al2874     Al  0.81709374  0.28596511  0.67631048     1.55600
O2875       O  0.89291890  0.30960282  0.66096914    -0.77800
C2876       C  0.78726827  0.32713936  0.69775781     0.98200
C2877       C  0.82372636  0.27970968  0.60038399     0.93000
O2878       O  0.83779893  0.29949445  0.59853049    -0.83100
O2879       O  0.64010973  0.32695136  0.88351345    -0.82500
C2880       C  0.65874011  0.30301424  0.74039866     0.96800
O2881       O  0.65901199  0.32604179  0.75219603    -0.71600
O2882       O  0.61561398  0.34327996  0.78665053    -0.75200
Al2883     Al  0.65129246  0.33896261  0.79972940     1.49000
C2884       C  0.59749412  0.34265483  0.80916526     0.92100
O2885       O  0.60084023  0.28064944  0.82658184    -0.81500
O2886       O  0.67423155  0.27047358  0.85015690    -0.75000
Al2887     Al  0.62172318  0.30425368  0.85358205     1.90100
O2888       O  0.63311763  0.25615913  0.80945094    -0.74100
O2889       O  0.69305155  0.29709143  0.79545300    -0.73900
O2890       O  0.64987300  0.28485852  0.75892193    -0.79600
O2891       O  0.68787150  0.33828337  0.80864159    -0.77800
O2892       O  0.64517056  0.30764944  0.81956423    -1.13900
O2893       O  0.64604814  0.35822758  0.84429236    -0.73100
C2894       C  0.64385373  0.35069912  0.87644160     0.97600
C2895       C  0.60930568  0.25950055  0.81396605     0.94000
Al2896     Al  0.66146587  0.27955113  0.80478957     1.55600
O2897       O  0.60030588  0.33130064  0.83838206    -0.77800
C2898       C  0.70194893  0.31992996  0.79710516     0.98200
C2899       C  0.65835370  0.26450629  0.87414342     0.93000
O2900       O  0.63723326  0.27617536  0.87671880    -0.83100
O2901       O  0.45965069  0.59132754  0.52288374    -0.82500
C2902       C  0.45476355  0.58954250  0.87570779     0.96800
O2903       O  0.46528949  0.57241068  0.89453757    -0.71600
O2904       O  0.49683752  0.59814165  0.93339690    -0.75200
Al2905     Al  0.47240314  0.57228148  0.94358890     1.49000
C2906       C  0.50297734  0.61706976  0.95250396     0.92100
O2907       O  0.44580386  0.64742314  0.95677130    -0.81500
O2908       O  0.39844417  0.58782727  0.97444588    -0.75000
Al2909     Al  0.45295248  0.61909114  0.98731498     1.90100
O2910       O  0.41061253  0.63121180  0.93508174    -0.74100
O2911       O  0.41848012  0.55844741  0.91980856    -0.73900
O2912       O  0.43593421  0.60283615  0.88723681    -0.79600
O2913       O  0.45060829  0.54246654  0.95007237    -0.77800
O2914       O  0.44779780  0.59524908  0.95434414    -1.13900
O2915       O  0.48629821  0.56910990  0.99102308    -0.73100
C2916       C  0.48006179  0.57859403  0.52008617     0.97600
C2917       C  0.42448618  0.65068988  0.94197670     0.94000
Al2918     Al  0.41807079  0.59491008  0.93111398     1.55600
O2919       O  0.48814571  0.62522652  0.97644362    -0.77800
C2920       C  0.43245699  0.53926635  0.92807255     0.98200
C2921       C  0.40025314  0.60219879  0.00189733     0.93000
O2922       O  0.41824386  0.61644850  0.50807731    -0.83100
O2923       O  0.45206560  0.39762794  0.73384757    -0.82500
C2924       C  0.44101419  0.40936646  0.87960940     0.96800
O2925       O  0.45321960  0.42453823  0.85931313    -0.71600
O2926       O  0.48585298  0.39826249  0.82236407    -0.75200
Al2927     Al  0.46101734  0.42325900  0.81045299     1.49000
C2928       C  0.49294715  0.37913933  0.80415718     0.92100
O2929       O  0.43350592  0.34743768  0.80242254    -0.81500
O2930       O  0.38836180  0.40763305  0.77793131    -0.75000
Al2931     Al  0.44242281  0.37453507  0.77003134     1.90100
O2932       O  0.39759892  0.36505906  0.81989177    -0.74100
O2933       O  0.40668323  0.43821597  0.83255986    -0.73900
O2934       O  0.42257324  0.39526557  0.86823146    -0.79600
O2935       O  0.43898893  0.45215942  0.80105287    -0.77800
O2936       O  0.43669483  0.39980144  0.80086489    -1.13900
O2937       O  0.47542412  0.42519011  0.76346204    -0.73100
C2938       C  0.47127673  0.41233221  0.73556812     0.97600
C2939       C  0.41102188  0.34503236  0.81440134     0.94000
Al2940     Al  0.40616395  0.40148563  0.82267770     1.55600
O2941       O  0.47767100  0.36878449  0.78243918    -0.77800
C2942       C  0.42147473  0.45658318  0.82368934     0.98200
C2943       C  0.39070728  0.39246320  0.75134676     0.93000
O2944       O  0.40874798  0.37596332  0.74991967    -0.83100
C2945       C  0.44783838  0.48652387  0.86012922    -0.21000
C2946       C  0.42323485  0.47936771  0.84834388    -0.07600
C2947       C  0.40164545  0.48998402  0.86620851     0.13300
C2948       C  0.40532399  0.50826285  0.89365406    -0.21100
C2949       C  0.43001229  0.51538026  0.90550944    -0.07600
C2950       C  0.45159429  0.50363220  0.88873593     0.13300
C2951       C  0.47892775  0.50942497  0.89930508    -0.24400
H2952       H  0.46452683  0.47795358  0.84752750     0.14500
H2953       H  0.38869747  0.51736327  0.90577814     0.14600
C2954       C  0.37461900  0.48258848  0.85605774    -0.24400
H2955       H  0.49276537  0.49595694  0.88642230     0.04800
H2956       H  0.48136812  0.50724105  0.92829189     0.08000
H2957       H  0.48436830  0.52926247  0.89085190     0.08000
H2958       H  0.37102732  0.46176133  0.86211366     0.08000
H2959       H  0.37168596  0.48620666  0.82733731     0.08000
H2960       H  0.36010462  0.49406862  0.87095748     0.04800
C2961       C  0.56229342  0.36881778  0.83297712    -0.21000
C2962       C  0.57244948  0.35538777  0.80378294    -0.07600
C2963       C  0.55658860  0.35009632  0.77452645     0.13300
C2964       C  0.53063571  0.35773807  0.77573881    -0.21100
C2965       C  0.52014971  0.37042786  0.80561577    -0.07600
C2966       C  0.53650657  0.37638633  0.83445773     0.13300
C2967       C  0.52707153  0.38973026  0.86762826    -0.24400
H2968       H  0.57457361  0.37256630  0.85557582     0.14500
H2969       H  0.51849623  0.35374054  0.75312767     0.14600
C2970       C  0.56665932  0.33551156  0.74282473    -0.24400
H2971       H  0.54218290  0.39078406  0.88830821     0.04800
H2972       H  0.51066755  0.37867565  0.87893199     0.08000
H2973       H  0.52119797  0.41001426  0.86163557     0.08000
H2974       H  0.57365948  0.31602581  0.75114647     0.08000
H2975       H  0.58273961  0.34656129  0.73048096     0.08000
H2976       H  0.55155599  0.33272138  0.72244139     0.04800
C2977       C  0.73005995  0.34717060  0.75705882    -0.21000
C2978       C  0.72707899  0.32474182  0.77846526    -0.07600
C2979       C  0.74456336  0.30396235  0.77319052     0.13300
C2980       C  0.76184830  0.30465054  0.74451386    -0.21100
C2981       C  0.76473450  0.32674787  0.72278106    -0.07600
C2982       C  0.74916544  0.34864323  0.73008516     0.13300
C2983       C  0.75196830  0.37305966  0.70835849    -0.24400
H2984       H  0.71665030  0.36311927  0.76022897     0.14500
H2985       H  0.77394218  0.28786903  0.74022235     0.14600
C2986       C  0.74574358  0.28068652  0.79763584    -0.24400
H2987       H  0.73800666  0.38820595  0.71670573     0.04800
H2988       H  0.74858944  0.36859186  0.67997929     0.08000
H2989       H  0.77166034  0.38107615  0.71145086     0.08000
H2990       H  0.73966946  0.26292402  0.78322439     0.08000
H2991       H  0.73366973  0.28302748  0.82170183     0.08000
H2992       H  0.76579066  0.27801295  0.80694358     0.04800
C2993       C  0.58279152  0.19893310  0.77112033    -0.21000
C2994       C  0.57082796  0.18674002  0.80024898    -0.07600
C2995       C  0.56746428  0.20108612  0.83199865     0.13300
C2996       C  0.57797246  0.22630387  0.83453875    -0.21100
C2997       C  0.59220083  0.23721101  0.80653017    -0.07600
C2998       C  0.59386329  0.22372624  0.77401471     0.13300
C2999       C  0.60781722  0.23515916  0.74245051    -0.24400
H3000       H  0.58500525  0.18834320  0.74649162     0.14500
H3001       H  0.57667106  0.23677122  0.85938415     0.14600
C3002       C  0.55306204  0.19002774  0.86335569    -0.24400
H3003       H  0.60584062  0.22272842  0.71857406     0.04800
H3004       H  0.62863985  0.23696745  0.74810243     0.08000
H3005       H  0.59980236  0.25463692  0.73610852     0.08000
H3006       H  0.56357728  0.17316974  0.87458921     0.08000
H3007       H  0.53353980  0.18386753  0.85508807     0.08000
H3008       H  0.55087458  0.20459606  0.88484172     0.04800
C3009       C  0.59471073  0.99988233  0.89469794    -0.21000
C3010       C  0.57436751  0.99392070  0.91858344    -0.07600
C3011       C  0.55242153  0.01031736  0.91801585     0.13300
C3012       C  0.55059088  0.02997627  0.89230988    -0.21100
C3013       C  0.56985718  0.03468704  0.86672278    -0.07600
C3014       C  0.59284439  0.02021066  0.86918031     0.13300
C3015       C  0.61487676  0.02534412  0.84419778    -0.24400
H3016       H  0.61178668  0.98783389  0.89488525     0.14500
H3017       H  0.53311949  0.04137613  0.89155075     0.14600
C3018       C  0.52979780  0.00677160  0.94276825    -0.24400
H3019       H  0.63119858  0.01191464  0.84913355     0.04800
H3020       H  0.62192767  0.04556739  0.84776233     0.08000
H3021       H  0.60845439  0.02270154  0.81641429     0.08000
H3022       H  0.53641259  0.00675996  0.97069274     0.08000
H3023       H  0.51952491  0.98847505  0.93661489     0.08000
H3024       H  0.51543975  0.02259184  0.93993625     0.04800
C3025       C  0.43672085  0.16663607  0.80565568    -0.21000
C3026       C  0.41491005  0.15175766  0.79703475    -0.07600
C3027       C  0.41817064  0.12842684  0.77754025     0.13300
C3028       C  0.44306157  0.12033768  0.76843656    -0.21100
C3029       C  0.46482194  0.13475247  0.77819991    -0.07600
C3030       C  0.46161517  0.15840146  0.79661316     0.13300
C3031       C  0.48436767  0.17416771  0.80877685    -0.24400
H3032       H  0.43433490  0.18457752  0.82033170     0.14500
H3033       H  0.44565746  0.10209051  0.75453774     0.14600
C3034       C  0.39585358  0.11116344  0.76761798    -0.24400
H3035       H  0.47836307  0.19160429  0.82401426     0.04800
H3036       H  0.49569732  0.18092542  0.78550723     0.08000
H3037       H  0.49672918  0.16206556  0.82617518     0.08000
H3038       H  0.38291088  0.12161348  0.74910159     0.08000
H3039       H  0.38506316  0.10527095  0.79180792     0.08000
H3040       H  0.40231657  0.09312831  0.75410288     0.04800
C3041       C  0.23485883  0.15882272  0.78957777    -0.21000
C3042       C  0.26032962  0.15755762  0.77770996    -0.07600
C3043       C  0.26432534  0.15314983  0.74081705     0.13300
C3044       C  0.24426243  0.15778082  0.71653426    -0.21100
C3045       C  0.21888862  0.16049608  0.72827467    -0.07600
C3046       C  0.21415764  0.15719179  0.76544871     0.13300
C3047       C  0.18798114  0.15030788  0.78010891    -0.24400
H3048       H  0.23114205  0.16033398  0.81777862     0.14500
H3049       H  0.24818952  0.15739373  0.68830088     0.14600
C3050       C  0.28824572  0.14067499  0.72646682    -0.24400
H3051       H  0.18160560  0.13154185  0.76857104     0.04800
H3052       H  0.17355720  0.16522611  0.77390784     0.08000
H3053       H  0.18832185  0.14793875  0.80937863     0.08000
H3054       H  0.30103121  0.13380640  0.74783132     0.08000
H3055       H  0.29842972  0.15404106  0.70813371     0.08000
H3056       H  0.28282129  0.12303370  0.71127918     0.04800
C3057       C  0.39931412  0.27285625  0.83370263    -0.21000
C3058       C  0.37431678  0.26947019  0.82011422    -0.07600
C3059       C  0.36170737  0.29135409  0.80498214     0.13300
C3060       C  0.37418881  0.31561291  0.80439264    -0.21100
C3061       C  0.39903271  0.31890014  0.81800940    -0.07600
C3062       C  0.41180817  0.29722044  0.83276596     0.13300
C3063       C  0.43818453  0.29989053  0.84868955    -0.24400
H3064       H  0.40904454  0.25643450  0.84571518     0.14500
H3065       H  0.36459636  0.33219131  0.79249814     0.14600
C3066       C  0.33534892  0.28953453  0.78855453    -0.24400
H3067       H  0.44485588  0.28132463  0.86064426     0.04800
H3068       H  0.43778902  0.31485414  0.86982572     0.08000
H3069       H  0.45230503  0.30564164  0.82797621     0.08000
H3070       H  0.32073132  0.28506814  0.80920090     0.08000
H3071       H  0.33523341  0.27425475  0.76779650     0.08000
H3072       H  0.32953921  0.30812538  0.77582693     0.04800
C3073       C  0.37934931  0.09807708  0.94553088    -0.21000
C3074       C  0.37324070  0.10950392  0.97849330    -0.07600
C3075       C  0.35270304  0.12745116  0.97978205     0.13300
C3076       C  0.34106150  0.13570716  0.94790577    -0.21100
C3077       C  0.34975974  0.12699744  0.91452733    -0.07600
C3078       C  0.36810985  0.10675709  0.91360870     0.13300
C3079       C  0.37794447  0.09627379  0.87885122    -0.24400
H3080       H  0.39502731  0.08421556  0.94430752     0.14500
H3081       H  0.32696242  0.15118742  0.94879808     0.14600
C3082       C  0.35844261  0.13875270  0.51235757    -0.24400
H3083       H  0.38711240  0.11212391  0.86319130     0.04800
H3084       H  0.36173169  0.08793520  0.86354781     0.08000
H3085       H  0.39248133  0.08072858  0.88281924     0.08000
H3086       H  0.34247357  0.15307466  0.51176316     0.08000
H3087       H  0.35268970  0.12248752  0.53013447     0.08000
H3088       H  0.37563398  0.14866854  0.52328315     0.04800
C3089       C  0.52559424  0.08607770  0.93063385    -0.21000
C3090       C  0.51199701  0.09608146  0.90154827    -0.07600
C3091       C  0.48449756  0.09477447  0.90183567     0.13300
C3092       C  0.47199345  0.08274306  0.93005293    -0.21100
C3093       C  0.48530834  0.07592676  0.96054881    -0.07600
C3094       C  0.51244521  0.07641738  0.96052034     0.13300
C3095       C  0.52264103  0.04314058  0.46206627    -0.24400
H3096       H  0.54642832  0.08600660  0.93015159     0.14500
H3097       H  0.45110621  0.08263312  0.93085102     0.14600
C3098       C  0.46747405  0.10734778  0.87408502    -0.24400
H3099       H  0.53734780  0.02907760  0.45285057     0.04800
H3100       H  0.50361944  0.03725315  0.45150481     0.08000
H3101       H  0.52235028  0.04220312  0.49145498     0.08000
H3102       H  0.46757690  0.09586871  0.84925643     0.08000
H3103       H  0.47388078  0.12763910  0.86895445     0.08000
H3104       H  0.44705686  0.10840794  0.88276044     0.04800
C3105       C  0.52012301  0.05094395  0.67786009    -0.21000
C3106       C  0.50681561  0.05134054  0.70966383    -0.07600
C3107       C  0.47978834  0.05325723  0.70914650     0.13300
C3108       C  0.46777437  0.06317722  0.67877209    -0.21100
C3109       C  0.48243858  0.06923513  0.64861089    -0.07600
C3110       C  0.50871181  0.06059320  0.64722069     0.13300
C3111       C  0.52565858  0.06144717  0.61457079    -0.24400
H3112       H  0.54071813  0.04758253  0.67841057     0.14500
H3113       H  0.44727974  0.06692930  0.67904704     0.14600
C3114       C  0.46403670  0.04584193  0.74115456    -0.24400
H3115       H  0.54490350  0.05279488  0.61938172     0.04800
H3116       H  0.52918880  0.08182046  0.60603123     0.08000
H3117       H  0.51684758  0.04980011  0.59315510     0.08000
H3118       H  0.44315435  0.04851768  0.73631661     0.08000
H3119       H  0.46936411  0.05769894  0.76436662     0.08000
H3120       H  0.46742800  0.02503854  0.74760968     0.04800
C3121       C  0.41395452  0.98781311  0.62823059    -0.21000
C3122       C  0.43499494  0.98212095  0.65074366    -0.07600
C3123       C  0.45838303  0.99563700  0.64372962     0.13300
C3124       C  0.46011780  0.01306705  0.61486341    -0.21100
C3125       C  0.43913033  0.01929231  0.59287235    -0.07600
C3126       C  0.41554671  0.00640511  0.60015312     0.13300
C3127       C  0.39217812  0.01153771  0.57786554    -0.24400
H3128       H  0.39603864  0.97744021  0.63240911     0.14500
H3129       H  0.47842019  0.02242206  0.60991435     0.14600
C3130       C  0.48230977  0.99165960  0.66550167    -0.24400
H3131       H  0.37582409  0.99879735  0.58564922     0.04800
H3132       H  0.39672970  0.00779372  0.54955917     0.08000
H3133       H  0.38588992  0.03201279  0.58113192     0.08000
H3134       H  0.48997709  0.97190084  0.66122517     0.08000
H3135       H  0.47819985  0.99511914  0.69397756     0.08000
H3136       H  0.49797347  0.00510010  0.65752325     0.04800
C3137       C  0.50775164  0.89516216  0.81333015    -0.21000
C3138       C  0.50327295  0.91771870  0.79303810    -0.07600
C3139       C  0.51985334  0.93934903  0.79709653     0.13300
C3140       C  0.53930800  0.93827845  0.82283319    -0.21100
C3141       C  0.54293612  0.91607074  0.84412042    -0.07600
C3142       C  0.52722510  0.89402679  0.83871917     0.13300
C3143       C  0.52917034  0.86950518  0.86069311    -0.24400
H3144       H  0.49583497  0.87806574  0.80952956     0.14500
H3145       H  0.55078140  0.95548910  0.82799039     0.14600
C3146       C  0.51646294  0.96401118  0.77584641    -0.24400
H3147       H  0.53291407  0.85269889  0.84299676     0.04800
H3148       H  0.51073459  0.86612406  0.87493426     0.08000
H3149       H  0.54472162  0.87004599  0.88057130     0.08000
H3150       H  0.49653994  0.97139413  0.77910638     0.08000
H3151       H  0.52041374  0.96031461  0.74739103     0.08000
H3152       H  0.52989194  0.97953779  0.78454297     0.04800
C3153       C  0.49709130  0.89043582  0.55942495    -0.21000
C3154       C  0.50173019  0.91505896  0.54433592    -0.07600
C3155       C  0.48325345  0.93495378  0.54890181     0.13300
C3156       C  0.46143949  0.92997739  0.56990881    -0.21100
C3157       C  0.45823180  0.90610511  0.58779280    -0.07600
C3158       C  0.47556656  0.88571227  0.58079547     0.13300
C3159       C  0.47301152  0.85939673  0.59809394    -0.24400
H3160       H  0.51037165  0.87458445  0.55455537     0.14500
H3161       H  0.44855903  0.94591062  0.57624727     0.14600
C3162       C  0.47883413  0.95936116  0.02694995    -0.24400
H3163       H  0.47261205  0.84408137  0.57740846     0.04800
H3164       H  0.45506850  0.85768278  0.61379260     0.08000
H3165       H  0.48962387  0.85590759  0.61589144     0.08000
H3166       H  0.47716343  0.95427953  0.99852806     0.08000
H3167       H  0.49599580  0.97183863  0.03113627     0.08000
H3168       H  0.46159348  0.97095092  0.03393325     0.04800
C3169       C  0.57423416  0.62843243  0.94023120    -0.21000
C3170       C  0.57540733  0.65572933  0.94105758    -0.07600
C3171       C  0.55243197  0.67008661  0.94618823     0.13300
C3172       C  0.52909114  0.65679703  0.94965874    -0.21100
C3173       C  0.52799065  0.62967578  0.94756854    -0.07600
C3174       C  0.55081041  0.61520040  0.94303775     0.13300
C3175       C  0.55078644  0.58585356  0.94219110    -0.24400
H3176       H  0.59171630  0.61729985  0.93680862     0.14500
H3177       H  0.51146538  0.66766401  0.95369153     0.14600
C3178       C  0.55216231  0.69925217  0.94910666    -0.24400
H3179       H  0.57057232  0.57784361  0.94037719     0.04800
H3180       H  0.54002126  0.57887230  0.91872903     0.08000
H3181       H  0.54176574  0.57808238  0.96675099     0.08000
H3182       H  0.55800090  0.70816861  0.92348509     0.08000
H3183       H  0.56539113  0.70525807  0.97060176     0.08000
H3184       H  0.53272758  0.70684502  0.95564349     0.04800
C3185       C  0.62710057  0.79890519  0.91373307    -0.21000
C3186       C  0.61565327  0.77864813  0.93312863    -0.07600
C3187       C  0.59345232  0.78348461  0.95324255     0.13300
C3188       C  0.58381820  0.80886087  0.95515324    -0.21100
C3189       C  0.59554492  0.82959586  0.93658805    -0.07600
C3190       C  0.61723481  0.82432765  0.91485564     0.13300
C3191       C  0.62985095  0.84498651  0.89225089    -0.24400
H3192       H  0.64384119  0.79472202  0.89749551     0.14500
H3193       H  0.56707211  0.81245553  0.97159465     0.14600
C3194       C  0.57968781  0.76177248  0.97199734    -0.24400
H3195       H  0.64523049  0.83675855  0.87512174     0.04800
H3196       H  0.63886880  0.85998275  0.90926870     0.08000
H3197       H  0.61532841  0.85413695  0.87468932     0.08000
H3198       H  0.59315055  0.75132965  0.98966507     0.08000
H3199       H  0.57228865  0.74820340  0.95178026     0.08000
H3200       H  0.58564954  0.76218658  0.50662755     0.04800
C3201       C  0.76172055  0.70749552  0.01548051    -0.21000
C3202       C  0.77242127  0.68449999  0.53432666    -0.07600
C3203       C  0.76024359  0.66068790  0.52552030     0.13300
C3204       C  0.74202501  0.65987912  0.49746433    -0.21100
C3205       C  0.73203041  0.68564643  0.97465643    -0.07600
C3206       C  0.74447853  0.70869877  0.98666940     0.13300
C3207       C  0.73903758  0.73509411  0.97097618    -0.24400
H3208       H  0.77143105  0.72509718  0.02380068     0.14500
H3209       H  0.73214042  0.64174132  0.49215715     0.14600
C3210       C  0.76572795  0.63619761  0.54609937    -0.24400
H3211       H  0.75218606  0.75024991  0.98147978     0.04800
H3212       H  0.71923028  0.74110495  0.97788698     0.08000
H3213       H  0.74151109  0.73473943  0.94183966     0.08000
H3214       H  0.76191479  0.63949655  0.57471360     0.08000
H3215       H  0.78606575  0.63034093  0.54222619     0.08000
H3216       H  0.75345446  0.61976582  0.53726856     0.04800
C3217       C  0.86853336  0.17936966  0.67471479    -0.21000
C3218       C  0.89525915  0.17745467  0.67114356    -0.07600
C3219       C  0.90975317  0.19975273  0.66187787     0.13300
C3220       C  0.89731231  0.22373118  0.65810814    -0.21100
C3221       C  0.87084069  0.22617260  0.66440993    -0.07600
C3222       C  0.85609731  0.20355570  0.67192288     0.13300
C3223       C  0.82733309  0.20461954  0.67673657    -0.24400
H3224       H  0.85751201  0.16210445  0.68130030     0.14500
H3225       H  0.90854393  0.24090118  0.65160512     0.14600
C3226       C  0.93843217  0.19841515  0.65632365    -0.24400
H3227       H  0.81891377  0.18490167  0.68029705     0.04800
H3228       H  0.81836869  0.21360847  0.65301469     0.08000
H3229       H  0.82241746  0.21608456  0.70069102     0.08000
H3230       H  0.94308810  0.18329167  0.63634599     0.08000
H3231       H  0.94800240  0.19373469  0.68172834     0.08000
H3232       H  0.94640018  0.21724685  0.64675155     0.04800
C3233       C  0.02136613  0.17701111  0.69182647    -0.21000
C3234       C  0.01308898  0.15747972  0.66855106    -0.07600
C3235       C  0.02922591  0.14991081  0.64007830     0.13300
C3236       C  0.05419285  0.15984101  0.63811668    -0.21100
C3237       C  0.06346188  0.17661194  0.66421026    -0.07600
C3238       C  0.04676544  0.18619590  0.69048728     0.13300
C3239       C  0.05626070  0.20475267  0.71820096    -0.24400
H3240       H  0.00886292  0.18313761  0.71324814     0.14500
H3241       H  0.06698556  0.15327787  0.61719465     0.14600
C3242       C  0.02111407  0.13072997  0.61213427    -0.24400
H3243       H  0.04074880  0.21039703  0.73696606     0.04800
H3244       H  0.06385050  0.22266355  0.70531517     0.08000
H3245       H  0.07180299  0.19521547  0.73350364     0.08000
H3246       H  0.00079912  0.12476881  0.61507725     0.08000
H3247       H  0.03340213  0.11310268  0.61355604     0.08000
H3248       H  0.02330387  0.13971333  0.58547613     0.04800
C3249       C  0.89402390  0.79288653  0.60435940    -0.21000
C3250       C  0.90034594  0.77275546  0.58077705    -0.07600
C3251       C  0.91646388  0.77829016  0.55147442     0.13300
C3252       C  0.92455806  0.80411680  0.54556736    -0.21100
C3253       C  0.91653593  0.82466082  0.56770193    -0.07600
C3254       C  0.90181804  0.81867785  0.59830295    -0.15500
C3255       C  0.89418188  0.83918484  0.62483747    -0.24400
H3256       H  0.88178394  0.78853308  0.62697794     0.14500
H3257       H  0.93616490  0.80838811  0.52232484     0.14600
C3258       C  0.92425765  0.75797680  0.52479164    -0.24400
H3259       H  0.88438056  0.83056824  0.64833112     0.04800
H3260       H  0.88059819  0.85319316  0.61266275     0.08000
H3261       H  0.91156295  0.84961105  0.63427997     0.08000
H3262       H  0.94555551  0.75661348  0.52383663     0.08000
H3263       H  0.91658046  0.73837517  0.53093854     0.08000
H3264       H  0.93113879  0.75944066  0.02087979     0.04800
C3265       C  0.90969647  0.01658271  0.63889021    -0.21000
C3266       C  0.93415503  0.02342250  0.65226520    -0.07600
C3267       C  0.95597424  0.01109068  0.63662085     0.13300
C3268       C  0.95270899  0.99353737  0.60831332    -0.21100
C3269       C  0.92838510  0.98670477  0.59517323    -0.07600
C3270       C  0.90656047  0.99821234  0.61122703     0.13300
C3271       C  0.87991310  0.99174545  0.59852926    -0.24400
H3272       H  0.89278987  0.02594424  0.64979333     0.14500
H3273       H  0.96956328  0.98442158  0.59690981     0.14600
C3274       C  0.98313025  0.01639512  0.64856480    -0.24400
H3275       H  0.86504823  0.00337836  0.61251427     0.04800
H3276       H  0.87562450  0.97088642  0.60340763     0.08000
H3277       H  0.87844603  0.99593823  0.56971968     0.08000
H3278       H  0.98492053  0.01242316  0.67738396     0.08000
H3279       H  0.98847095  0.03682500  0.64250122     0.08000
H3280       H  0.99733532  0.00384998  0.63474017     0.04800
C3281       C  0.12357621  0.32277943  0.67953417    -0.21000
C3282       C  0.09661400  0.32343146  0.67625385    -0.07600
C3283       C  0.08338900  0.30032298  0.66705555     0.13300
C3284       C  0.09745751  0.27736348  0.66177858    -0.21100
C3285       C  0.12426993  0.27667354  0.66604197    -0.07600
C3286       C  0.13753541  0.29970733  0.67475819     0.13300
C3287       C  0.16639893  0.30027455  0.67808598    -0.24400
H3288       H  0.13384252  0.34037374  0.68660316     0.14500
H3289       H  0.08736033  0.25960334  0.65494795     0.14600
C3290       C  0.05462242  0.29960744  0.66216589    -0.24400
H3291       H  0.17367133  0.32025159  0.68311828     0.04800
H3292       H  0.17534141  0.29319676  0.65314887     0.08000
H3293       H  0.17254318  0.28779706  0.70055248     0.08000
H3294       H  0.04880850  0.31433046  0.64214075     0.08000
H3295       H  0.04476984  0.30353505  0.68773222     0.08000
H3296       H  0.04793376  0.28027047  0.65285061     0.04800
C3297       C  0.92859007  0.36621954  0.66548204    -0.21000
C3298       C  0.92431846  0.34074222  0.67732004    -0.07600
C3299       C  0.94537848  0.32557658  0.68858251     0.13300
C3300       C  0.97005552  0.33688651  0.68943069    -0.21100
C3301       C  0.97428547  0.36282754  0.67855494    -0.07600
C3302       C  0.95313471  0.37745569  0.66555356     0.13300
C3303       C  0.95563786  0.40527482  0.65298718    -0.24400
H3304       H  0.91242217  0.37749545  0.65607886     0.14500
H3305       H  0.98605466  0.32552696  0.69931815     0.14600
C3306       C  0.94174503  0.29792423  0.70103731    -0.24400
H3307       H  0.93689522  0.41349617  0.64456433     0.04800
H3308       H  0.96885823  0.40634181  0.62984961     0.08000
H3309       H  0.96286357  0.41770639  0.67480175     0.08000
H3310       H  0.93453816  0.28573207  0.67896584     0.08000
H3311       H  0.92771684  0.29736134  0.72329617     0.08000
H3312       H  0.96006527  0.28927548  0.71042530     0.04800
C3313       C  0.04624582  0.51694853  0.62065866    -0.21000
C3314       C  0.06825770  0.52044684  0.59933101    -0.07600
C3315       C  0.09075624  0.50669503  0.60840734     0.13300
C3316       C  0.09010786  0.48857179  0.63663488    -0.21100
C3317       C  0.06761941  0.48395756  0.65703054    -0.07600
C3318       C  0.04571857  0.49947230  0.64960576     0.13300
C3319       C  0.02148333  0.49775196  0.67148241    -0.24400
H3320       H  0.02926995  0.52838653  0.61501787     0.14500
H3321       H  0.10717908  0.47714935  0.64189204     0.14600
C3322       C  0.11522042  0.51037390  0.58748981    -0.24400
H3323       H  0.00740098  0.51300926  0.66393349     0.04800
H3324       H  0.02609089  0.50048630  0.69993003     0.08000
H3325       H  0.01203342  0.47866779  0.66748204     0.08000
H3326       H  0.12207273  0.53074496  0.58994182     0.08000
H3327       H  0.11167963  0.50594383  0.55913920     0.08000
H3328       H  0.13076818  0.49736073  0.59705944     0.04800
C3329       C  0.94562708  0.67001443  0.54570036    -0.21000
C3330       C  0.92384282  0.65386196  0.54520832    -0.07600
C3331       C  0.92679627  0.62677184  0.54115046     0.13300
C3332       C  0.95167413  0.61631219  0.53952724    -0.21100
C3333       C  0.97344072  0.63244703  0.54136728    -0.07600
C3334       C  0.97045420  0.65965338  0.54338949     0.13300
C3335       C  0.99333827  0.67766063  0.54487290    -0.24400
H3336       H  0.94316041  0.69078174  0.54946734     0.14500
H3337       H  0.95419617  0.59545070  0.53699940     0.14600
C3338       C  0.90384536  0.60889137  0.54003634    -0.24400
H3339       H  0.98741612  0.69827288  0.54816654     0.04800
H3340       H  0.00461419  0.67628531  0.51992352     0.08000
H3341       H  0.00578476  0.67233053  0.56757932     0.08000
H3342       H  0.89160683  0.61404618  0.51703103     0.08000
H3343       H  0.89236833  0.61083215  0.56471213     0.08000
H3344       H  0.90966245  0.58819599  0.53733962     0.04800
C3345       C  0.37103558  0.38783225  0.65604263    -0.21000
C3346       C  0.35134002  0.36924453  0.65898075    -0.07600
C3347       C  0.33981532  0.36528771  0.69278883     0.13300
C3348       C  0.35070101  0.37678101  0.72314422    -0.21100
C3349       C  0.37274785  0.39243105  0.72069164    -0.07600
C3350       C  0.38189653  0.39935376  0.68644182     0.13300
C3351       C  0.40458423  0.41724334  0.68141879    -0.24400
H3352       H  0.38005137  0.39114142  0.63045236     0.14500
H3353       H  0.34350904  0.37125927  0.74912301     0.14600
C3354       C  0.31715629  0.34734162  0.69791897    -0.24400
H3355       H  0.39907717  0.43363279  0.66378066     0.04800
H3356       H  0.42073422  0.40642643  0.66902316     0.08000
H3357       H  0.41128227  0.42568012  0.70679559     0.08000
H3358       H  0.32288589  0.33044765  0.71450607     0.08000
H3359       H  0.30946978  0.34003948  0.67241517     0.08000
H3360       H  0.30139251  0.35798099  0.71148791     0.04800
C3361       C  0.32295445  0.26820889  0.90726705    -0.21000
C3362       C  0.31205271  0.24345147  0.91340409    -0.07600
C3363       C  0.30617443  0.23561072  0.94798588     0.13300
C3364       C  0.31370248  0.25147952  0.97601541    -0.21100
C3365       C  0.32719637  0.27511092  0.97033302    -0.07600
C3366       C  0.33076313  0.28417012  0.93542894     0.13300
C3367       C  0.34436550  0.30943190  0.92769936    -0.24400
H3368       H  0.32782376  0.27387255  0.88035980     0.14500
H3369       H  0.30948685  0.24494085  0.00274866     0.14600
C3370       C  0.29329750  0.20984247  0.95522312    -0.24400
H3371       H  0.34660697  0.31280841  0.89874725     0.04800
H3372       H  0.36383085  0.30915275  0.93968583     0.08000
H3373       H  0.33314917  0.32587176  0.93881609     0.08000
H3374       H  0.30545826  0.19372020  0.94520614     0.08000
H3375       H  0.27440538  0.20928297  0.94163790     0.08000
H3376       H  0.28997724  0.20664250  0.98400982     0.04800
C3377       C  0.34688042  0.22663015  0.67211332    -0.21000
C3378       C  0.32432964  0.24103810  0.66529289    -0.07600
C3379       C  0.30054799  0.23189278  0.67807390     0.13300
C3380       C  0.30065924  0.21102210  0.70208268    -0.21100
C3381       C  0.32395332  0.19941192  0.71258485    -0.07600
C3382       C  0.34677529  0.20541006  0.69487986     0.13300
C3383       C  0.37147607  0.19128733  0.70308387    -0.24400
H3384       H  0.36512737  0.23267682  0.66090794     0.14500
H3385       H  0.28307671  0.20598262  0.71606008     0.14600
C3386       C  0.27564561  0.24516172  0.66891244    -0.24400
H3387       H  0.38769264  0.19850253  0.68649083     0.04800
H3388       H  0.36897464  0.17019870  0.69774570     0.08000
H3389       H  0.37672012  0.19396769  0.73134255     0.08000
H3390       H  0.27226793  0.24391240  0.63993343     0.08000
H3391       H  0.27644979  0.26591948  0.67691584     0.08000
H3392       H  0.25902138  0.23588845  0.68258811     0.04800
C3393       C  0.37861731  0.20049383  0.60140601    -0.21000
C3394       C  0.39190450  0.22333208  0.59136462    -0.07600
C3395       C  0.41769227  0.22127147  0.57982911     0.13300
C3396       C  0.42852088  0.19638590  0.57565938    -0.21100
C3397       C  0.41464875  0.17362714  0.58411514    -0.07600
C3398       C  0.38990083  0.17582031  0.59893314     0.13300
C3399       C  0.37482464  0.15219022  0.61051442    -0.24400
H3400       H  0.35888255  0.20179882  0.61043209     0.14500
H3401       H  0.44757992  0.19458106  0.56425953     0.14600
C3402       C  0.43337176  0.24490711  0.56996218    -0.24400
H3403       H  0.35553287  0.15749149  0.62094098     0.04800
H3404       H  0.38535425  0.14193723  0.63193567     0.08000
H3405       H  0.37212825  0.13873830  0.58792133     0.08000
H3406       H  0.43573372  0.25757829  0.59350121     0.08000
H3407       H  0.42365203  0.25594467  0.54851842     0.08000
H3408       H  0.45288218  0.23953116  0.56042061     0.04800
C3409       C  0.23605727  0.34698356  0.50040481    -0.21000
C3410       C  0.23492732  0.33074697  0.95873273    -0.07600
C3411       C  0.25218148  0.30947832  0.96003585     0.13300
C3412       C  0.26886959  0.30688036  0.98904012    -0.21100
C3413       C  0.26993419  0.32037486  0.52744763    -0.07600
C3414       C  0.25504728  0.34340520  0.52705298     0.13300
C3415       C  0.25836227  0.36371403  0.55529085    -0.24400
H3416       H  0.22374026  0.36393874  0.50172566     0.14500
H3417       H  0.28073901  0.28977069  0.99054756     0.14600
C3418       C  0.25316995  0.28898546  0.93156331    -0.24400
H3419       H  0.24441248  0.37989285  0.55214487     0.04800
H3420       H  0.27799976  0.37212411  0.55372767     0.08000
H3421       H  0.25533465  0.35480583  0.58183653     0.08000
H3422       H  0.25539363  0.29832978  0.90515461     0.08000
H3423       H  0.23566769  0.27674168  0.93235648     0.08000
H3424       H  0.26966522  0.27566796  0.93522965     0.04800
C3425       C  0.11911019  0.39582450  0.84518865    -0.21000
C3426       C  0.13885892  0.37725671  0.84372678    -0.07600
C3427       C  0.14871974  0.36998987  0.81013608     0.13300
C3428       C  0.13694491  0.37933573  0.77906015    -0.21100
C3429       C  0.11533720  0.39559667  0.78066309    -0.07600
C3430       C  0.10712040  0.40490963  0.81406519     0.13300
C3431       C  0.08439620  0.42290848  0.81698820    -0.24400
H3432       H  0.11113100  0.40101924  0.87079723     0.14500
H3433       H  0.14311249  0.37181053  0.75358310     0.14600
C3434       C  0.17015894  0.35049010  0.80631066    -0.24400
H3435       H  0.08066952  0.42869612  0.84487592     0.04800
H3436       H  0.06688736  0.41316098  0.80690391     0.08000
H3437       H  0.08808551  0.44080734  0.80119899     0.08000
H3438       H  0.16291909  0.33285836  0.79260135     0.08000
H3439       H  0.17830093  0.34452475  0.83222563     0.08000
H3440       H  0.18597512  0.35916756  0.79032304     0.04800
C3441       C  0.18515823  0.29109403  0.55819295    -0.21000
C3442       C  0.16178108  0.29301553  0.53968037    -0.07600
C3443       C  0.14350836  0.27304939  0.54341585     0.13300
C3444       C  0.15005981  0.25042034  0.56192980    -0.21100
C3445       C  0.17372350  0.24781576  0.57978941    -0.07600
C3446       C  0.19122714  0.26896367  0.57866523     0.13300
C3447       C  0.21696891  0.26773857  0.59682291    -0.24400
H3448       H  0.19963934  0.30602418  0.55405068     0.14500
H3449       H  0.13618309  0.23476176  0.56252806     0.14600
C3450       C  0.11757452  0.27492854  0.52575965    -0.24400
H3451       H  0.22896494  0.28509285  0.59064319     0.04800
H3452       H  0.22763197  0.25022300  0.58789573     0.08000
H3453       H  0.21434848  0.26703724  0.62599761     0.08000
H3454       H  0.11978340  0.27677185  0.49663973     0.08000
H3455       H  0.10725156  0.29230116  0.53586204     0.08000
H3456       H  0.10548535  0.25752548  0.53122563     0.04800
C3457       C  0.13829137  0.25917421  0.80629918    -0.21000
C3458       C  0.16156597  0.25952891  0.82544838    -0.07600
C3459       C  0.17899730  0.23867935  0.82140334     0.13300
C3460       C  0.17284584  0.21857954  0.79811895    -0.21100
C3461       C  0.15010059  0.21870256  0.77801769    -0.07600
C3462       C  0.13246253  0.23912325  0.78257076     0.13300
C3463       C  0.10810436  0.24044495  0.76125076    -0.24400
H3464       H  0.12439380  0.27463958  0.80990093     0.14500
H3465       H  0.18727592  0.20394700  0.79299634     0.14600
C3466       C  0.20482106  0.23796249  0.83960240    -0.24400
H3467       H  0.09670257  0.25812784  0.76745073     0.04800
H3468       H  0.09614929  0.22319364  0.76761564     0.08000
H3469       H  0.11259730  0.24074324  0.73246998     0.08000
H3470       H  0.20238631  0.23540305  0.86858660     0.08000
H3471       H  0.21552317  0.25624260  0.83401777     0.08000
H3472       H  0.21685034  0.22148991  0.83022534     0.04800
C3473       C  0.99928686  0.89011408  0.68669122    -0.21000
C3474       C  0.00203588  0.91197665  0.70880790    -0.07600
C3475       C  0.98485769  0.93316038  0.70461852     0.13300
C3476       C  0.96633108  0.93219768  0.67767917    -0.21100
C3477       C  0.96417560  0.91058534  0.65523781    -0.07600
C3478       C  0.98071602  0.88914785  0.66001529     0.13300
C3479       C  0.98045670  0.86555688  0.63622923    -0.24400
H3480       H  0.01182724  0.87345510  0.69004324     0.14500
H3481       H  0.95424049  0.94901534  0.67282231     0.14600
C3482       C  0.98642471  0.95728536  0.72717274    -0.24400
H3483       H  0.97697036  0.84783803  0.65247343     0.04800
H3484       H  0.99936673  0.86365710  0.62272020     0.08000
H3485       H  0.96545109  0.86628317  0.61555104     0.08000
H3486       H  0.00608698  0.96567292  0.72561233     0.08000
H3487       H  0.98154962  0.95252071  0.75510792     0.08000
H3488       H  0.97267652  0.97246373  0.71827541     0.04800
C3489       C  0.03182012  0.88785014  0.91668671    -0.21000
C3490       C  0.04983352  0.90789356  0.91373225    -0.07600
C3491       C  0.04841267  0.92907699  0.93730176     0.13300
C3492       C  0.02764298  0.93090976  0.96110216    -0.21100
C3493       C  0.00768101  0.91241586  0.96105358    -0.07600
C3494       C  0.01044919  0.88993451  0.93923481     0.13300
C3495       C  0.99112697  0.86797502  0.93839672    -0.24400
H3496       H  0.03283148  0.87184111  0.89802430     0.14500
H3497       H  0.02647267  0.94746342  0.97875964     0.14600
C3498       C  0.06819545  0.95041239  0.93583108    -0.24400
H3499       H  0.99649899  0.85273548  0.91891564     0.04800
H3500       H  0.97191733  0.87529292  0.93054811     0.08000
H3501       H  0.99012008  0.85830642  0.96457673     0.08000
H3502       H  0.06773115  0.95985699  0.90948336     0.08000
H3503       H  0.08760662  0.94210559  0.94034115     0.08000
H3504       H  0.06458500  0.96557122  0.95616329     0.04800
C3505       C  0.15042762  0.12527364  0.56354164    -0.21000
C3506       C  0.13747318  0.12261336  0.59614410    -0.07600
C3507       C  0.11601555  0.10579590  0.59793113     0.13300
C3508       C  0.10588081  0.09527710  0.56640354    -0.21100
C3509       C  0.11672843  0.10112461  0.53302348    -0.07600
C3510       C  0.14036964  0.11478877  0.53202608     0.13300
C3511       C  0.15410506  0.12108871  0.49785585    -0.24400
H3512       H  0.16690219  0.13819841  0.56190780     0.14500
H3513       H  0.08774047  0.08487087  0.56744042     0.14600
C3514       C  0.10231202  0.10106709  0.63260606    -0.24400
H3515       H  0.17396591  0.11324242  0.49891618     0.04800
H3516       H  0.15516019  0.14251571  0.49438239     0.08000
H3517       H  0.14342298  0.11418037  0.97337688     0.08000
H3518       H  0.09520065  0.11968260  0.64370196     0.08000
H3519       H  0.11581269  0.09205443  0.65175637     0.08000
H3520       H  0.08559297  0.08782008  0.62941002     0.04800
C3521       C  0.12454119  0.18218906  0.93944004    -0.21000
C3522       C  0.09752214  0.18079815  0.94035861    -0.07600
C3523       C  0.08318134  0.20420265  0.93762893     0.13300
C3524       C  0.09625701  0.22798036  0.93402050    -0.21100
C3525       C  0.12320969  0.22928783  0.93358015    -0.07600
C3526       C  0.13755653  0.20607005  0.93649393     0.13300
C3527       C  0.16650978  0.20616053  0.93508063    -0.24400
H3528       H  0.13564717  0.16443573  0.94107390     0.14500
H3529       H  0.08530216  0.24582317  0.93141625     0.14600
C3530       C  0.05415940  0.20452819  0.93741539    -0.24400
H3531       H  0.17453279  0.18615773  0.93634562     0.04800
H3532       H  0.17430135  0.21720857  0.95787796     0.08000
H3533       H  0.17308831  0.21523738  0.90991879     0.08000
H3534       H  0.04655189  0.19784778  0.96342201     0.08000
H3535       H  0.04686633  0.19178573  0.91595358     0.08000
H3536       H  0.04646271  0.22439419  0.93273388     0.04800
C3537       C  0.04622589  0.01499455  0.88006906    -0.21000
C3538       C  0.06856917  0.02160073  0.89896011    -0.07600
C3539       C  0.09194727  0.00957541  0.88885353     0.13300
C3540       C  0.09226316  0.99135710  0.86083339    -0.21100
C3541       C  0.06990986  0.98466891  0.84171804    -0.07600
C3542       C  0.04659622  0.99742554  0.85130631     0.13300
C3543       C  0.02180422  0.99310851  0.83163798    -0.24400
H3544       H  0.02841264  0.02482255  0.88660333     0.14500
H3545       H  0.11017418  0.98166262  0.85446260     0.14600
C3546       C  0.11653658  0.01503777  0.90846780    -0.24400
H3547       H  0.00648694  0.00667359  0.84052484     0.04800
H3548       H  0.01454918  0.97319542  0.83660303     0.08000
H3549       H  0.02480001  0.99644780  0.80282961     0.08000
H3550       H  0.11365279  0.01127559  0.93720985     0.08000
H3551       H  0.12259021  0.03552234  0.90434916     0.08000
H3552       H  0.13250562  0.00244493  0.89911849     0.04800
C3553       C  0.96250862  0.06493240  0.56812336    -0.21000
C3554       C  0.95467280  0.08946165  0.58056591    -0.07600
C3555       C  0.96311986  0.11205749  0.56288616     0.13300
C3556       C  0.98234438  0.10985788  0.53712773    -0.21100
C3557       C  0.99268052  0.08552017  0.52800239    -0.07600
C3558       C  0.98146673  0.06267934  0.54170097     0.13300
C3559       C  0.99008699  0.03887045  0.03415229    -0.24400
H3560       H  0.95577357  0.04762041  0.58167155     0.14500
H3561       H  0.98998734  0.12742113  0.52506006     0.14600
C3562       C  0.95361688  0.13880596  0.57269052    -0.24400
H3563       H  0.97929493  0.02319213  0.04807227     0.04800
H3564       H  0.01056438  0.03765489  0.04221979     0.08000
H3565       H  0.98864685  0.03541381  0.00520591     0.08000
H3566       H  0.96980244  0.15091079  0.58238122     0.08000
H3567       H  0.93851138  0.13816025  0.59352198     0.08000
H3568       H  0.94526078  0.14832040  0.54892140     0.04800
C3569       C  0.03920677  0.12489911  0.82364476    -0.21000
C3570       C  0.05258081  0.10197854  0.83026772    -0.07600
C3571       C  0.04907663  0.08064665  0.80731457     0.13300
C3572       C  0.02878622  0.08087686  0.78276190    -0.21100
C3573       C  0.01267768  0.10266674  0.77946091    -0.07600
C3574       C  0.01945580  0.12579305  0.79848818     0.13300
C3575       C  0.00584200  0.15156131  0.79399477    -0.24400
H3576       H  0.04219574  0.14134947  0.84112503     0.14500
H3577       H  0.02537008  0.06387736  0.76652029     0.14600
C3578       C  0.06684413  0.05765607  0.80922681    -0.24400
H3579       H  0.01439114  0.16709598  0.81065037     0.04800
H3580       H  0.98534013  0.14981758  0.80190452     0.08000
H3581       H  0.00745402  0.15812590  0.76607904     0.08000
H3582       H  0.06692969  0.04952566  0.83628471     0.08000
H3583       H  0.08668796  0.06402056  0.80253820     0.08000
H3584       H  0.06115615  0.04205620  0.79050294     0.04800
C3585       C  0.55533777  0.18027323  0.57509449    -0.21000
C3586       C  0.57724414  0.16990050  0.55817549    -0.07600
C3587       C  0.57416428  0.14883187  0.53438552     0.13300
C3588       C  0.54972366  0.13842863  0.52920353    -0.21100
C3589       C  0.52785887  0.14854337  0.54603042    -0.07600
C3590       C  0.53059482  0.16992325  0.56908786     0.13300
C3591       C  0.50782359  0.18093264  0.58861143    -0.24400
H3592       H  0.55762157  0.19632134  0.59338960     0.14500
H3593       H  0.54783026  0.12147244  0.51251209     0.14600
C3594       C  0.59643291  0.13604500  0.51536760    -0.24400
H3595       H  0.51351107  0.19699703  0.60659009     0.04800
H3596       H  0.49850111  0.16546208  0.60480460     0.08000
H3597       H  0.49379971  0.18878320  0.56928676     0.08000
H3598       H  0.61071229  0.12889184  0.53488792     0.08000
H3599       H  0.60557891  0.15006423  0.49674204     0.08000
H3600       H  0.59021577  0.11907148  0.49935351     0.04800
C3601       C  0.63938705  0.22700787  0.90416072    -0.21000
C3602       C  0.66167505  0.24166623  0.89683068    -0.07600
C3603       C  0.68495195  0.23521537  0.91324000     0.13300
C3604       C  0.68445298  0.21662354  0.94035653    -0.21100
C3605       C  0.66104247  0.20538662  0.95201102    -0.07600
C3606       C  0.63866959  0.20909351  0.93191928     0.13300
C3607       C  0.61368002  0.19590307  0.94094835    -0.24400
H3608       H  0.62184770  0.23098373  0.88968552     0.14500
H3609       H  0.70812770  0.23688797  0.47979965     0.14600
C3610       C  0.70966866  0.24910085  0.90425178    -0.24400
H3611       H  0.59825193  0.20097297  0.92186347     0.04800
H3612       H  0.60715903  0.20198877  0.96771861     0.08000
H3613       H  0.61643559  0.17449587  0.94010536     0.08000
H3614       H  0.72591934  0.24198139  0.92063823     0.08000
H3615       H  0.70747840  0.27030375  0.90898251     0.08000
H3616       H  0.71465234  0.24577252  0.87599093     0.04800
C3617       C  0.67522515  0.28617252  0.64667957    -0.21000
C3618       C  0.68957885  0.26340012  0.65356035    -0.07600
C3619       C  0.70051476  0.25982629  0.68697053     0.13300
C3620       C  0.69283191  0.27626642  0.71440470    -0.21100
C3621       C  0.67368644  0.29532353  0.70906862    -0.07600
C3622       C  0.66613205  0.30164805  0.67455488     0.13300
C3623       C  0.64654773  0.32258869  0.66769271    -0.24400
H3624       H  0.66756668  0.28943938  0.62045789     0.14500
H3625       H  0.69951250  0.27196940  0.74082184     0.14600
C3626       C  0.71798219  0.23712203  0.69436469    -0.24400
H3627       H  0.64261982  0.32487800  0.63894760     0.04800
H3628       H  0.65377576  0.34146167  0.67787691     0.08000
H3629       H  0.62818338  0.31765912  0.68128732     0.08000
H3630       H  0.73503593  0.23820962  0.67661626     0.08000
H3631       H  0.70766686  0.21853144  0.68961454     0.08000
H3632       H  0.72482676  0.23712407  0.72221657     0.04800
C3633       C  0.61198908  0.10701928  0.68567839    -0.21000
C3634       C  0.61490439  0.11615479  0.72075588    -0.07600
C3635       C  0.63313558  0.13620150  0.72650829     0.13300
C3636       C  0.64575804  0.14796326  0.69720260    -0.21100
C3637       C  0.64034368  0.14094723  0.66177542    -0.07600
C3638       C  0.62388599  0.11933128  0.65630877     0.13300
C3639       C  0.61679642  0.11045895  0.61957390    -0.24400
H3640       H  0.59831870  0.09151130  0.68076422     0.14500
H3641       H  0.65852074  0.16426515  0.70195187     0.14600
C3642       C  0.63804190  0.14673758  0.76307106    -0.24400
H3643       H  0.60362056  0.09343037  0.62019791     0.04800
H3644       H  0.63438080  0.10468708  0.60482002     0.08000
H3645       H  0.60682748  0.12638213  0.60521237     0.08000
H3646       H  0.64481415  0.13082558  0.78066210     0.08000
H3647       H  0.62017168  0.15528486  0.77412152     0.08000
H3648       H  0.65295295  0.16223384  0.76280990     0.04800
C3649       C  0.94091947  0.15666990  0.89829978    -0.21000
C3650       C  0.93263850  0.17295533  0.92573798    -0.07600
C3651       C  0.94860224  0.17737004  0.95495672     0.13300
C3652       C  0.97241291  0.16468155  0.95668268    -0.21100
C3653       C  0.98009175  0.14650760  0.93066775    -0.07600
C3654       C  0.96401736  0.14270898  0.90075760     0.13300
C3655       C  0.96521896  0.11378455  0.37869053    -0.24400
H3656       H  0.92469636  0.14554695  0.37952161     0.14500
H3657       H  0.98441667  0.16806316  0.97960937     0.14600
C3658       C  0.94008616  0.19481704  0.98472271    -0.24400
H3659       H  0.94960891  0.11203682  0.35881285     0.04800
H3660       H  0.96573294  0.09531127  0.39400642     0.08000
H3661       H  0.98351177  0.11626547  0.36417504     0.08000
H3662       H  0.92228381  0.18687753  0.99699764     0.08000
H3663       H  0.93618337  0.21463659  0.97424632     0.08000
H3664       H  0.95494122  0.19637323  0.00567679     0.04800
C3665       C  0.85145642  0.12783133  0.81822070    -0.21000
C3666       C  0.86322186  0.12366450  0.85126898    -0.07600
C3667       C  0.88541014  0.10787852  0.85241321     0.13300
C3668       C  0.89743454  0.10015617  0.82049620    -0.21100
C3669       C  0.88744728  0.10734696  0.78722644    -0.07600
C3670       C  0.86334816  0.12011067  0.78625910     0.13300
C3671       C  0.85166028  0.12852594  0.75162823    -0.24400
H3672       H  0.83467167  0.14030313  0.81709947     0.14500
H3673       H  0.91575871  0.09016363  0.82154002     0.14600
C3674       C  0.89739039  0.10084185  0.88741269    -0.24400
H3675       H  0.83317557  0.13894581  0.75557184     0.04800
H3676       H  0.84790305  0.11124000  0.73485230     0.08000
H3677       H  0.86507241  0.14189391  0.73764867     0.08000
H3678       H  0.88346246  0.08928664  0.90335573     0.08000
H3679       H  0.90246496  0.11860487  0.90241173     0.08000
H3680       H  0.91511601  0.08908904  0.88385751     0.04800
C3681       C  0.81526258  0.21807371  0.54646846    -0.21000
C3682       C  0.83908876  0.21671384  0.52866483    -0.07600
C3683       C  0.85751502  0.23620866  0.53457220     0.13300
C3684       C  0.85132950  0.25705859  0.55682661    -0.21100
C3685       C  0.82710341  0.25893473  0.57368122    -0.07600
C3686       C  0.80898569  0.23881016  0.56883811     0.13300
C3687       C  0.78248425  0.23968761  0.58525795    -0.24400
H3688       H  0.80047968  0.20400865  0.54036525     0.14500
H3689       H  0.86572591  0.27195449  0.56109102     0.14600
C3690       C  0.88307857  0.23586367  0.51568852    -0.24400
H3691       H  0.77010381  0.22354427  0.57570695     0.04800
H3692       H  0.77293143  0.25831099  0.57826064     0.08000
H3693       H  0.78371381  0.23775768  0.61447853     0.08000
H3694       H  0.88009547  0.23646847  0.48661138     0.08000
H3695       H  0.89355093  0.21781588  0.52280926     0.08000
H3696       H  0.89525337  0.25277179  0.52301962     0.04800
C3697       C  0.85109030  0.25904423  0.77043201    -0.21000
C3698       C  0.84130184  0.28399361  0.77666487    -0.07600
C3699       C  0.82589574  0.28826205  0.80682397     0.13300
C3700       C  0.82024387  0.26736008  0.82973107    -0.21100
C3701       C  0.82884782  0.24188680  0.82247709    -0.07600
C3702       C  0.84442301  0.23778872  0.79190707     0.13300
C3703       C  0.85327007  0.21111582  0.78024460    -0.24400
H3704       H  0.86210166  0.25569666  0.74640343     0.14500
H3705       H  0.80897846  0.27103745  0.85340151     0.14600
C3706       C  0.81488904  0.31479471  0.81414477    -0.24400
H3707       H  0.86215851  0.21158585  0.75342319     0.04800
H3708       H  0.83662267  0.19759143  0.77911889     0.08000
H3709       H  0.86809643  0.20342713  0.79847491     0.08000
H3710       H  0.80237440  0.32101193  0.79193880     0.08000
H3711       H  0.83079479  0.32904944  0.81706381     0.08000
H3712       H  0.80320501  0.31494779  0.83884760     0.04800
C3713       C  0.74898004  0.16070305  0.95941279    -0.21000
C3714       C  0.77333100  0.16403558  0.97421985    -0.07600
C3715       C  0.77498963  0.16045965  0.51161333     0.13300
C3716       C  0.75428789  0.16537766  0.53507645    -0.21100
C3717       C  0.72933083  0.16868634  0.52236425    -0.07600
C3718       C  0.72701801  0.15680594  0.98103110     0.13300
C3719       C  0.70331700  0.14604503  0.96356139    -0.24400
H3720       H  0.74731853  0.15986400  0.93081483     0.14500
H3721       H  0.75751377  0.16606729  0.56341979     0.14600
C3722       C  0.79955656  0.15007320  0.52740077    -0.24400
H3723       H  0.70663829  0.14176689  0.93507008     0.04800
H3724       H  0.68737255  0.15986938  0.96492745     0.08000
H3725       H  0.69763371  0.12754178  0.97670941     0.08000
H3726       H  0.81581879  0.16341288  0.52303100     0.08000
H3727       H  0.80410988  0.13092945  0.51537776     0.08000
H3728       H  0.79779588  0.14709453  0.55648547     0.04800
C3729       C  0.62431666  0.39071906  0.90144593    -0.21000
C3730       C  0.64126468  0.36969967  0.90605004    -0.07600
C3731       C  0.65002933  0.36392401  0.94074613     0.13300
C3732       C  0.63911051  0.37693927  0.96999128    -0.21100
C3733       C  0.61919911  0.39504824  0.96551826    -0.07600
C3734       C  0.61284271  0.40309284  0.93080028     0.13300
C3735       C  0.59244814  0.42339899  0.92482874    -0.24400
H3736       H  0.61775298  0.39551495  0.87499170     0.14500
H3737       H  0.64403035  0.37073770  0.99659436     0.14600
C3738       C  0.67007787  0.34329000  0.94726497    -0.24400
H3739       H  0.58982919  0.42767514  0.89619558     0.04800
H3740       H  0.59805130  0.44171295  0.93831053     0.08000
H3741       H  0.57373544  0.41660464  0.93564711     0.08000
H3742       H  0.68749297  0.34759225  0.93115748     0.08000
H3743       H  0.66262533  0.32374667  0.94033015     0.08000
H3744       H  0.67585446  0.34259717  0.97556323     0.04800
C3745       C  0.48738967  0.38947087  0.94800200    -0.21000
C3746       C  0.49333990  0.41388282  0.96287108    -0.07600
C3747       C  0.47619022  0.43478681  0.95724979     0.13300
C3748       C  0.45574426  0.43162414  0.93326925    -0.21100
C3749       C  0.45149060  0.40785319  0.91572186    -0.07600
C3750       C  0.46653676  0.38617349  0.92493115     0.13300
C3751       C  0.46172492  0.35997829  0.90834769    -0.24400
H3752       H  0.49937804  0.37281870  0.95404706     0.14500
H3753       H  0.44428217  0.44838792  0.92588963     0.14600
C3754       C  0.47997149  0.46071509  0.97495875    -0.24400
H3755       H  0.47524291  0.34500135  0.91843773     0.04800
H3756       H  0.46410737  0.36118652  0.87912199     0.08000
H3757       H  0.44183251  0.35353881  0.91463897     0.08000
H3758       H  0.49919428  0.46871313  0.96801611     0.08000
H3759       H  0.46963888  0.46222736  0.49726315     0.08000
H3760       H  0.46508923  0.47494004  0.96672386     0.04800
C3761       C  0.51439231  0.38893597  0.66030244    -0.21000
C3762       C  0.53016186  0.41054301  0.65486506    -0.07600
C3763       C  0.52821017  0.43193756  0.67795824     0.13300
C3764       C  0.50893191  0.43208377  0.70420584    -0.21100
C3765       C  0.49097856  0.41163991  0.70692114    -0.07600
C3766       C  0.49439009  0.38929886  0.68505778     0.13300
C3767       C  0.47720912  0.36559877  0.68652202    -0.24400
H3768       H  0.51602940  0.37267415  0.64215658     0.14500
H3769       H  0.50725549  0.44870459  0.72167242     0.14600
C3770       C  0.54544581  0.45515238  0.67341961    -0.24400
H3771       H  0.48296193  0.35059548  0.66690510     0.04800
H3772       H  0.45707974  0.37102638  0.68030608     0.08000
H3773       H  0.47847993  0.35629750  0.71294372     0.08000
H3774       H  0.54210785  0.46364818  0.64697184     0.08000
H3775       H  0.56586602  0.44911427  0.67559969     0.08000
H3776       H  0.54155702  0.47036554  0.69358320     0.04800
C3777       C  0.60907113  0.32005053  0.53276890    -0.21000
C3778       C  0.59464437  0.33136064  0.56022006    -0.07600
C3779       C  0.59247532  0.31835031  0.59313611     0.13300
C3780       C  0.60486772  0.29426737  0.59772507    -0.21100
C3781       C  0.61967250  0.28327704  0.57042090    -0.07600
C3782       C  0.62177656  0.29628250  0.53751271     0.13300
C3783       C  0.63664676  0.28478745  0.50694592    -0.24400
H3784       H  0.61047958  0.32998212  0.50741859     0.14500
H3785       H  0.60336845  0.28415332  0.62291480     0.14600
C3786       C  0.57653932  0.32935715  0.62295376    -0.24400
H3787       H  0.63513085  0.29693503  0.48264928     0.04800
H3788       H  0.62896609  0.26517172  0.50066176     0.08000
H3789       H  0.65731611  0.28329519  0.51379883     0.08000
H3790       H  0.55642120  0.33223244  0.61398991     0.08000
H3791       H  0.58466745  0.34828567  0.63153499     0.08000
H3792       H  0.57621251  0.31617470  0.64634524     0.04800
C3793       C  0.44470532  0.32556491  0.57061967    -0.21000
C3794       C  0.42307605  0.33734538  0.55479074    -0.07600
C3795       C  0.42678501  0.35856441  0.53143162     0.13300
C3796       C  0.45158983  0.36852850  0.52668222    -0.21100
C3797       C  0.47298519  0.35766329  0.54384574    -0.07600
C3798       C  0.46970640  0.33535728  0.56512772     0.13300
C3799       C  0.49219149  0.32278997  0.58340086    -0.24400
H3800       H  0.44194329  0.30903198  0.58814693     0.14500
H3801       H  0.45418385  0.38571807  0.51037551     0.14600
C3802       C  0.40472965  0.37184353  0.51289678    -0.24400
H3803       H  0.48610225  0.30584771  0.59976872     0.04800
H3804       H  0.50173119  0.33708184  0.60100723     0.08000
H3805       H  0.50623525  0.31583001  0.56333817     0.08000
H3806       H  0.39070158  0.37918827  0.53273242     0.08000
H3807       H  0.39511285  0.35794802  0.49478056     0.08000
H3808       H  0.41130434  0.38866841  0.49663499     0.04800
C3809       C  0.62387815  0.60028737  0.80878483    -0.21000
C3810       C  0.63017888  0.61144411  0.77576028    -0.07600
C3811       C  0.64814289  0.63219452  0.77529189     0.13300
C3812       C  0.65731268  0.64273333  0.80746913    -0.21100
C3813       C  0.64885287  0.63333797  0.84059168    -0.07600
C3814       C  0.63295360  0.61088538  0.84099947     0.13300
C3815       C  0.62340115  0.59897418  0.87508284    -0.24400
H3816       H  0.60965962  0.58484097  0.80973961     0.14500
H3817       H  0.66908904  0.66015445  0.80673696     0.14600
C3818       C  0.65579823  0.64486755  0.74077414    -0.24400
H3819       H  0.60212126  0.60046468  0.87637265     0.04800
H3820       H  0.63163117  0.60851393  0.89878488     0.08000
H3821       H  0.62889582  0.57811181  0.87599746     0.08000
H3822       H  0.63870603  0.65355059  0.72786924     0.08000
H3823       H  0.66436657  0.63009233  0.72288385     0.08000
H3824       H  0.67015194  0.66060467  0.74475214     0.04800
C3825       C  0.48860897  0.61185902  0.84396267    -0.21000
C3826       C  0.46777965  0.59473093  0.84197982    -0.07600
C3827       C  0.46694301  0.57629954  0.81448863     0.13300
C3828       C  0.48733835  0.57498988  0.79001739    -0.21100
C3829       C  0.50912969  0.59120421  0.79294060    -0.07600
C3830       C  0.50944275  0.61025653  0.82037121     0.13300
C3831       C  0.53153979  0.62888474  0.82600578    -0.24400
H3832       H  0.48952270  0.62527447  0.86608651     0.14500
H3833       H  0.48632163  0.56090215  0.76876521     0.14600
C3834       C  0.44475467  0.55755938  0.81171232    -0.24400
H3835       H  0.52860698  0.64131545  0.84972257     0.04800
H3836       H  0.53344247  0.64217070  0.80291840     0.08000
H3837       H  0.54964314  0.61788201  0.83018453     0.08000
H3838       H  0.42655040  0.56860968  0.80880545     0.08000
H3839       H  0.44357683  0.54529354  0.83591130     0.08000
H3840       H  0.44683096  0.54447359  0.78850910     0.04800
C3841       C  0.52494903  0.57027937  0.54049002    -0.21000
C3842       C  0.50118820  0.58280992  0.54614520    -0.07600
C3843       C  0.49993985  0.60278689  0.57219560     0.13300
C3844       C  0.52242883  0.61050877  0.58947098    -0.21100
C3845       C  0.54535577  0.59657977  0.58597415    -0.07600
C3846       C  0.54682908  0.57665079  0.56050286     0.13300
C3847       C  0.57140194  0.56167337  0.55535922    -0.24400
H3848       H  0.52635294  0.55505395  0.52079947     0.14500
H3849       H  0.52116578  0.62506899  0.61012972     0.14600
C3850       C  0.47507501  0.61519128  0.58429779    -0.24400
H3851       H  0.56942300  0.54656921  0.53454689     0.04800
H3852       H  0.57698884  0.55187609  0.58038945     0.08000
H3853       H  0.58697625  0.57526871  0.54726603     0.08000
H3854       H  0.46770101  0.62871143  0.56390869     0.08000
H3855       H  0.47767438  0.62689759  0.60872091     0.08000
H3856       H  0.46061117  0.59992571  0.59060229     0.04800
C3857       C  0.58913185  0.48915432  0.60591939    -0.21000
C3858       C  0.56487850  0.48654620  0.58935848    -0.07600
C3859       C  0.54479277  0.50308903  0.60175880     0.13300
C3860       C  0.54879805  0.51928480  0.63143734    -0.21100
C3861       C  0.57285244  0.52181149  0.64806678    -0.07600
C3862       C  0.59345677  0.50690634  0.63418478     0.13300
C3863       C  0.61988380  0.50900274  0.65000324    -0.24400
H3864       H  0.60476936  0.47674504  0.59735761     0.14500
H3865       H  0.53283575  0.53075838  0.64103989     0.14600
C3866       C  0.51871007  0.50395597  0.58441128    -0.24400
H3867       H  0.63360348  0.49533343  0.63728670     0.04800
H3868       H  0.61896360  0.50435752  0.67874190     0.08000
H3869       H  0.62748581  0.52902049  0.64635223     0.08000
H3870       H  0.50789134  0.48577412  0.58997298     0.08000
H3871       H  0.52097652  0.50687687  0.55538940     0.08000
H3872       H  0.50684131  0.52029106  0.59457948     0.04800
C3873       C  0.85814864  0.61619770  0.71939047    -0.21000
C3874       C  0.88204985  0.60363883  0.71705889    -0.07600
C3875       C  0.89283458  0.59953672  0.68302362     0.13300
C3876       C  0.88158708  0.61123547  0.65310417    -0.21100
C3877       C  0.86007687  0.62750012  0.65638543    -0.07600
C3878       C  0.84738241  0.62876944  0.68959910     0.13300
C3879       C  0.82352055  0.64501458  0.69409436    -0.24400
H3880       H  0.84962176  0.61913505  0.74530568     0.14500
H3881       H  0.89161778  0.61024686  0.62793288     0.14600
C3882       C  0.91771677  0.58499311  0.67807993    -0.24400
H3883       H  0.81579149  0.64372513  0.72153268     0.04800
H3884       H  0.80844508  0.63807004  0.67562848     0.08000
H3885       H  0.82781081  0.66577264  0.68834683     0.08000
H3886       H  0.92461456  0.57612379  0.70315099     0.08000
H3887       H  0.93275522  0.59844586  0.66781499     0.08000
H3888       H  0.91486838  0.56903297  0.65871910     0.04800
C3889       C  0.99957105  0.61430416  0.68582939    -0.21000
C3890       C  0.00165898  0.59421301  0.71117645    -0.07600
C3891       C  0.02314509  0.57733324  0.70943950     0.13300
C3892       C  0.04083074  0.58011405  0.68129490    -0.21100
C3893       C  0.03813780  0.59987013  0.65575123    -0.07600
C3894       C  0.01767215  0.61762412  0.65880798     0.13300
C3895       C  0.01345681  0.63942957  0.63259416    -0.24400
H3896       H  0.98383405  0.62808242  0.68728868     0.14500
H3897       H  0.05592504  0.56579076  0.67785323     0.14600
C3898       C  0.02700481  0.55568380  0.73587971    -0.24400
H3899       H  0.01300639  0.65828605  0.64686850     0.04800
H3900       H  0.99476311  0.63660192  0.61901229     0.08000
H3901       H  0.02882294  0.64069429  0.61220249     0.08000
H3902       H  0.00974225  0.54295042  0.73659948     0.08000
H3903       H  0.03052624  0.56389776  0.76258661     0.08000
H3904       H  0.04387088  0.54344607  0.72895643     0.04800
C3905       C  0.95066190  0.57716222  0.93677553    -0.21000
C3906       C  0.94912985  0.60132683  0.91933603    -0.07600
C3907       C  0.96605238  0.62131863  0.92913885     0.13300
C3908       C  0.98734671  0.61527009  0.94998507    -0.21100
C3909       C  0.99117040  0.58996368  0.96336321    -0.07600
C3910       C  0.97151430  0.57122011  0.95894633     0.13300
C3911       C  0.97143184  0.54294934  0.47761274    -0.24400
H3912       H  0.93745625  0.56179729  0.92926002     0.14500
H3913       H  0.00114201  0.63053468  0.95554434     0.14600
C3914       C  0.96336311  0.64853374  0.91469213    -0.24400
H3915       H  0.95389769  0.53141315  0.47166194     0.04800
H3916       H  0.97060278  0.54816432  0.50611718     0.08000
H3917       H  0.98848428  0.53053884  0.47253993     0.08000
H3918       H  0.94563683  0.65085005  0.89870571     0.08000
H3919       H  0.98015918  0.65342422  0.89776940     0.08000
H3920       H  0.96237321  0.66252991  0.93701182     0.04800
C3921       C  0.85058501  0.38809613  0.53170560    -0.21000
C3922       C  0.87415094  0.40144151  0.53313457    -0.07600
C3923       C  0.88416682  0.40777966  0.56688500     0.13300
C3924       C  0.87241176  0.39778368  0.59780527    -0.21100
C3925       C  0.85106296  0.38109216  0.59601992    -0.07600
C3926       C  0.83905686  0.37772877  0.56271822     0.13300
C3927       C  0.81519621  0.36128996  0.55962903    -0.24400
H3928       H  0.84272853  0.38316103  0.50604999     0.14500
H3929       H  0.88176132  0.40065781  0.62308552     0.14600
C3930       C  0.90876817  0.42299241  0.57077764    -0.24400
H3931       H  0.80807118  0.36063660  0.53193407     0.04800
H3932       H  0.79978052  0.36953442  0.57663630     0.08000
H3933       H  0.81920037  0.34106730  0.56823724     0.08000
H3934       H  0.91589063  0.43076953  0.54507568     0.08000
H3935       H  0.92383777  0.41027123  0.58226022     0.08000
H3936       H  0.90549601  0.43979298  0.58865749     0.04800
C3937       C  0.01589244  0.42854141  0.53927884    -0.21000
C3938       C  0.99642200  0.40953173  0.54102496    -0.07600
C3939       C  0.00002774  0.38756304  0.56357316     0.13300
C3940       C  0.02231213  0.38590645  0.58419525    -0.21100
C3941       C  0.04035300  0.40606959  0.58468877    -0.07600
C3942       C  0.03752354  0.42726505  0.56123582     0.13300
C3943       C  0.05674223  0.44923837  0.56091198    -0.24400
H3944       H  0.01387271  0.44491646  0.52132922     0.14500
H3945       H  0.02422015  0.37012954  0.60320405     0.14600
C3946       C  0.98067465  0.36577077  0.56694397    -0.24400
H3947       H  0.05194967  0.46421432  0.54070582     0.04800
H3948       H  0.07617459  0.44149272  0.55483816     0.08000
H3949       H  0.05709819  0.45889784  0.58712997     0.08000
H3950       H  0.97867565  0.35563501  0.54123478     0.08000
H3951       H  0.96183899  0.37354987  0.57587192     0.08000
H3952       H  0.98663946  0.35092867  0.58673582     0.04800
C3953       C  0.96864532  0.38464442  0.83196992    -0.21000
C3954       C  0.95257679  0.40610369  0.83645989    -0.07600
C3955       C  0.95475657  0.42737874  0.81291442     0.13300
C3956       C  0.97458949  0.42774878  0.78749043    -0.21100
C3957       C  0.99281933  0.40759781  0.78582038    -0.07600
C3958       C  0.98898406  0.38512933  0.80753011     0.13300
C3959       C  0.00610283  0.36146121  0.80594777    -0.24400
H3960       H  0.96710636  0.36856592  0.85059949     0.14500
H3961       H  0.97648791  0.44437717  0.76992773     0.14600
C3962       C  0.93684130  0.45023950  0.81600315    -0.24400
H3963       H  0.99955795  0.34586342  0.82432703     0.04800
H3964       H  0.02601088  0.36664896  0.81373784     0.08000
H3965       H  0.00579505  0.35314309  0.77888512     0.08000
H3966       H  0.93905944  0.45947746  0.84227465     0.08000
H3967       H  0.91666932  0.44353297  0.81297618     0.08000
H3968       H  0.94082099  0.46521274  0.79539892     0.04800
C3969       C  0.90128981  0.31485588  0.90089377    -0.21000
C3970       C  0.89519862  0.32827628  0.93198115    -0.07600
C3971       C  0.87657923  0.31789772  0.95537247     0.13300
C3972       C  0.86495013  0.29387642  0.94756238    -0.21100
C3973       C  0.87141909  0.27979690  0.91679015    -0.07600
C3974       C  0.88956005  0.29093430  0.89268368     0.13300
C3975       C  0.89684728  0.27811942  0.85814983    -0.24400
H3976       H  0.91554322  0.32311230  0.88304945     0.14500
H3977       H  0.85117507  0.28578707  0.96621718     0.14600
C3978       C  0.86952087  0.33182162  0.98911785    -0.24400
H3979       H  0.90999978  0.29049432  0.84205663     0.04800
H3980       H  0.87936256  0.27457114  0.84209592     0.08000
H3981       H  0.90700719  0.25952269  0.86330997     0.08000
H3982       H  0.86147845  0.35123381  0.98262555     0.08000
H3983       H  0.88685571  0.33429606  0.00586189     0.08000
H3984       H  0.85490746  0.32090715  0.00478335     0.04800
C3985       C  0.91357669  0.49391596  0.89245327    -0.21000
C3986       C  0.93687667  0.48581086  0.90796431    -0.07600
C3987       C  0.95988831  0.49799205  0.89573364     0.13300
C3988       C  0.95885568  0.51706765  0.86858187    -0.21100
C3989       C  0.93558417  0.52473202  0.85273931    -0.07600
C3990       C  0.91256832  0.51303406  0.86548033     0.13300
C3991       C  0.88671681  0.52000967  0.85021465    -0.24400
H3992       H  0.89583811  0.48468137  0.90094744     0.14500
H3993       H  0.97649728  0.52648645  0.86008239     0.14600
C3994       C  0.98589407  0.49058473  0.90992811    -0.24400
H3995       H  0.87119440  0.50725838  0.86076301     0.04800
H3996       H  0.88717433  0.51778830  0.82095785     0.08000
H3997       H  0.88155670  0.54029216  0.85719340     0.08000
H3998       H  0.99049153  0.47033423  0.90226950     0.08000
H3999       H  0.98615792  0.49253026  0.93918953     0.08000
H4000       H  0.00139586  0.50320274  0.89903092     0.04800
C4001       C  0.04163771  0.37671269  0.95491579    -0.21000
C4002       C  0.02230476  0.36162765  0.93931688    -0.07600
C4003       C  0.02787171  0.33648375  0.92727853     0.13300
C4004       C  0.05321475  0.32733306  0.92970434    -0.21100
C4005       C  0.07310994  0.34273769  0.94429554    -0.07600
C4006       C  0.06689914  0.36763132  0.95792457     0.13300
C4007       C  0.08639330  0.38486862  0.97582965    -0.24400
H4008       H  0.03679098  0.39577167  0.96522784     0.14500
H4009       H  0.05752535  0.30823605  0.91916516     0.14600
C4010       C  0.00728649  0.31975780  0.91103198    -0.24400
H4011       H  0.07738603  0.40259948  0.98717638     0.04800
H4012       H  0.10112339  0.39145611  0.95641629     0.08000
H4013       H  0.09564303  0.37411613  0.99793441     0.08000
H4014       H  0.99888338  0.32992639  0.88781108     0.08000
H4015       H  0.99187078  0.31590965  0.93080451     0.08000
H4016       H  0.01502910  0.30075974  0.90199482     0.04800
C4017       C  0.03025391  0.65482857  0.84684010    -0.21000
C4018       C  0.02000925  0.65243555  0.81259929    -0.07600
C4019       C  0.03409672  0.66289445  0.78346867     0.13300
C4020       C  0.05849066  0.67375090  0.78915788    -0.21100
C4021       C  0.06897645  0.67516403  0.82311835    -0.07600
C4022       C  0.05436197  0.66644300  0.85254162     0.13300
C4023       C  0.06465141  0.66806015  0.88978458    -0.24400
H4024       H  0.01973502  0.64684006  0.86917520     0.14500
H4025       H  0.06994323  0.68033500  0.76676778     0.14600
C4026       C  0.02465132  0.66106928  0.74590205    -0.24400
H4027       H  0.05083119  0.66001606  0.90951320     0.04800
H4028       H  0.06837447  0.68869703  0.89672172     0.08000
H4029       H  0.08277348  0.65685356  0.89198435     0.08000
H4030       H  0.00638152  0.67196911  0.74289989     0.08000
H4031       H  0.02180169  0.64035173  0.73916434     0.08000
H4032       H  0.03863815  0.66933309  0.72657606     0.04800
C4033       C  0.10553251  0.59502595  0.92567868    -0.21000
C4034       C  0.11657307  0.59926953  0.95924010    -0.07600
C4035       C  0.14089510  0.61163778  0.96050833     0.13300
C4036       C  0.15173603  0.62221186  0.92924457    -0.21100
C4037       C  0.13892646  0.62098713  0.89650575    -0.07600
C4038       C  0.11632500  0.60578897  0.89446594     0.13300
C4039       C  0.10217567  0.60317054  0.85989006    -0.24400
H4040       H  0.08680964  0.58577787  0.92436869     0.14500
H4041       H  0.16887692  0.63415572  0.93128348     0.14600
C4042       C  0.15467529  0.61648484  0.99483316    -0.24400
H4043       H  0.08465127  0.59095503  0.86276938     0.04800
H4044       H  0.11496255  0.59396960  0.83993080     0.08000
H4045       H  0.09619823  0.62257713  0.84998588     0.08000
H4046       H  0.13914658  0.62334604  0.52687525     0.08000
H4047       H  0.15614994  0.63776904  0.99943620     0.08000
H4048       H  0.17434875  0.60820133  0.99326774     0.04800
C4049       C  0.12711236  0.82077175  0.80542842    -0.21000
C4050       C  0.10442282  0.82617659  0.82404845    -0.07600
C4051       C  0.09545258  0.80836158  0.84971514     0.13300
C4052       C  0.10904650  0.78506075  0.85533682    -0.21100
C4053       C  0.13132668  0.77884996  0.83557165    -0.07600
C4054       C  0.14053847  0.79736131  0.81037984     0.13300
C4055       C  0.16403534  0.79276428  0.78776480    -0.24400
H4056       H  0.13391936  0.83471497  0.78588865     0.14500
H4057       H  0.10183003  0.77142364  0.87495685     0.14600
C4058       C  0.07192500  0.81419124  0.87172703    -0.24400
H4059       H  0.16841631  0.80960201  0.77019792     0.04800
H4060       H  0.16070262  0.77574321  0.77042186     0.08000
H4061       H  0.18107556  0.78949248  0.80482660     0.08000
H4062       H  0.05481725  0.81591346  0.85439975     0.08000
H4063       H  0.07472484  0.83274636  0.88624818     0.08000
H4064       H  0.06803749  0.79860344  0.89150319     0.04800
C4065       C  0.38667536  0.59339531  0.56501801    -0.21000
C4066       C  0.37919996  0.60277171  0.53152687    -0.07600
C4067       C  0.35943668  0.62162852  0.53006233     0.13300
C4068       C  0.34960218  0.63241259  0.56177657    -0.21100
C4069       C  0.35931822  0.62514641  0.59514746    -0.07600
C4070       C  0.37737553  0.60463775  0.59667095     0.13300
C4071       C  0.38915179  0.59672242  0.63145524    -0.24400
H4072       H  0.40237385  0.57956647  0.56639473     0.14500
H4073       H  0.33620028  0.64851806  0.56031792     0.14600
C4074       C  0.35053578  0.63221603  0.49493135    -0.24400
H4075       H  0.40299947  0.58045889  0.62821872     0.04800
H4076       H  0.37381829  0.59035839  0.65012077     0.08000
H4077       H  0.39967692  0.61346419  0.64297464     0.08000
H4078       H  0.34292169  0.61607912  0.47851552     0.08000
H4079       H  0.36409505  0.63869541  0.98117076     0.08000
H4080       H  0.33509310  0.64692915  0.49824815     0.04800
C4081       C  0.45307546  0.67059398  0.67372119    -0.21000
C4082       C  0.43245274  0.65677211  0.68931692    -0.07600
C4083       C  0.43777249  0.63308998  0.70755120     0.13300
C4084       C  0.46294364  0.62345403  0.70776764    -0.21100
C4085       C  0.48308000  0.63699377  0.69144281    -0.07600
C4086       C  0.47838272  0.66110529  0.67500630     0.13300
C4087       C  0.49995871  0.67655259  0.65847040    -0.24400
H4088       H  0.44941589  0.68877154  0.66002446     0.14500
H4089       H  0.46710368  0.60527638  0.72128242     0.14600
C4090       C  0.41752576  0.61785336  0.72759283    -0.24400
H4091       H  0.49294613  0.69499327  0.64652830     0.04800
H4092       H  0.50932227  0.66498754  0.63730179     0.08000
H4093       H  0.51443835  0.68147352  0.67893504     0.08000
H4094       H  0.40306470  0.60984764  0.70905747     0.08000
H4095       H  0.40804062  0.63058539  0.74743830     0.08000
H4096       H  0.42588583  0.60107158  0.74216844     0.04800
C4097       C  0.25093548  0.65574077  0.78193715    -0.21000
C4098       C  0.22745409  0.66594435  0.77029834    -0.07600
C4099       C  0.22532800  0.67142204  0.73305406     0.13300
C4100       C  0.24765373  0.67313601  0.71182030    -0.21100
C4101       C  0.27139327  0.66421751  0.72387784    -0.07600
C4102       C  0.27198124  0.65242985  0.75830692     0.13300
C4103       C  0.29417922  0.63575342  0.77040880    -0.24400
H4104       H  0.25247809  0.64927376  0.80921054     0.14500
H4105       H  0.24618944  0.68024211  0.68480348     0.14600
C4106       C  0.20039915  0.67402585  0.71308702    -0.24400
H4107       H  0.29077731  0.62755613  0.79729901     0.04800
H4108       H  0.31232383  0.64695337  0.77135986     0.08000
H4109       H  0.29659590  0.61918706  0.75188231     0.08000
H4110       H  0.19899112  0.69349999  0.70063503     0.08000
H4111       H  0.18304367  0.67011834  0.72877513     0.08000
H4112       H  0.20015329  0.65944746  0.69141889     0.04800
C4113       C  0.40760044  0.77594117  0.67608155    -0.21000
C4114       C  0.38266460  0.77217265  0.68992290    -0.07600
C4115       C  0.37004223  0.79352028  0.70615518     0.13300
C4116       C  0.38214173  0.81802394  0.70637803    -0.21100
C4117       C  0.40672601  0.82176046  0.69170591    -0.07600
C4118       C  0.41985621  0.80026128  0.67706357     0.13300
C4119       C  0.44640107  0.80290522  0.66125572    -0.24400
H4120       H  0.41759882  0.75973761  0.66395407     0.14500
H4121       H  0.37246315  0.83439841  0.71858742     0.14600
C4122       C  0.34371277  0.79104194  0.72268034    -0.24400
H4123       H  0.45326734  0.78431860  0.64964922     0.04800
H4124       H  0.46038446  0.80873177  0.68189719     0.08000
H4125       H  0.44611210  0.81764883  0.63980523     0.08000
H4126       H  0.34415177  0.77657576  0.74456958     0.08000
H4127       H  0.32957340  0.78492668  0.70236930     0.08000
H4128       H  0.33698884  0.80976037  0.73404685     0.04800
C4129       C  0.07022167  0.87810633  0.56166757    -0.21000
C4130       C  0.07582672  0.85760886  0.53866362    -0.07600
C4131       C  0.05694700  0.84814720  0.51551201     0.13300
C4132       C  0.03234596  0.85897914  0.51675578    -0.21100
C4133       C  0.02604606  0.87877272  0.54108662    -0.07600
C4134       C  0.04554154  0.88879060  0.56353718     0.13300
C4135       C  0.04088305  0.91034475  0.58987822    -0.24400
H4136       H  0.08498325  0.88488024  0.57959344     0.14500
H4137       H  0.01791097  0.85160124  0.49874673     0.14600
C4138       C  0.06281565  0.82682749  0.48933179    -0.24400
H4139       H  0.05847956  0.91511407  0.60506897     0.04800
H4140       H  0.02591659  0.90438894  0.60933047     0.08000
H4141       H  0.03490920  0.92834485  0.57582478     0.08000
H4142       H  0.06790069  0.80861469  0.50349365     0.08000
H4143       H  0.07915253  0.83282205  0.47209502     0.08000
H4144       H  0.04608304  0.82257547  0.47208070     0.04800
C4145       C  0.12183099  0.89460027  0.64823189    -0.21000
C4146       C  0.14011537  0.87445854  0.64817547    -0.07600
C4147       C  0.15041896  0.86633200  0.68104361     0.13300
C4148       C  0.14045238  0.87655514  0.71302208    -0.21100
C4149       C  0.12015822  0.89461604  0.71310196    -0.07600
C4150       C  0.11161829  0.90456658  0.68020179     0.13300
C4151       C  0.09026962  0.92429773  0.67885080    -0.24400
H4152       H  0.11373775  0.90085798  0.62322942     0.14500
H4153       H  0.14685401  0.86855592  0.73808758     0.14600
C4154       C  0.17060747  0.84538316  0.68242550    -0.24400
H4155       H  0.08635332  0.93074864  0.65130469     0.04800
H4156       H  0.09571773  0.94167711  0.69454181     0.08000
H4157       H  0.07234063  0.91581713  0.68996907     0.08000
H4158       H  0.18778414  0.85170070  0.66707235     0.08000
H4159       H  0.16300332  0.82712178  0.67088028     0.08000
H4160       H  0.17668268  0.84118901  0.71004816     0.04800
C4161       C  0.17722009  0.76066082  0.68537817    -0.21000
C4162       C  0.15394592  0.76210321  0.66766634    -0.07600
C4163       C  0.13288378  0.74646671  0.67883410     0.13300
C4164       C  0.13603941  0.72922153  0.70725833    -0.21100
C4165       C  0.15933732  0.72780224  0.72545714    -0.07600
C4166       C  0.18026680  0.74436603  0.71464504     0.13300
C4167       C  0.20594607  0.74608282  0.73345085    -0.24400
H4168       H  0.19304709  0.77283617  0.67645759     0.14500
H4169       H  0.12002108  0.71717532  0.71575277     0.14600
C4170       C  0.10717241  0.74724176  0.66051894    -0.24400
H4171       H  0.21953955  0.75953813  0.71986362     0.04800
H4172       H  0.21550467  0.72686750  0.73452011     0.08000
H4173       H  0.20327478  0.75378911  0.76063129     0.08000
H4174       H  0.10960333  0.74261499  0.63207366     0.08000
H4175       H  0.09842807  0.76680649  0.66342035     0.08000
H4176       H  0.09344564  0.73288603  0.67194955     0.04800
C4177       C  0.18536855  0.76731325  0.91796989    -0.21000
C4178       C  0.17352785  0.74311338  0.92501835    -0.07600
C4179       C  0.15431855  0.74191634  0.95197121     0.13300
C4180       C  0.14659402  0.76483770  0.96886998    -0.21100
C4181       C  0.16030174  0.78806131  0.96455699    -0.07600
C4182       C  0.17964594  0.78945347  0.93835545     0.13300
C4183       C  0.19501343  0.81405545  0.93326321    -0.24400
H4184       H  0.19970111  0.76881855  0.89714306     0.14500
H4185       H  0.12893503  0.76837615  0.48105356     0.14600
C4186       C  0.14315572  0.71661878  0.96571497    -0.24400
H4187       H  0.20945720  0.81204611  0.91168513     0.04800
H4188       H  0.20540342  0.81896867  0.95800171     0.08000
H4189       H  0.18188448  0.83030096  0.92636978     0.08000
H4190       H  0.15883158  0.70257294  0.97136487     0.08000
H4191       H  0.12936605  0.70825749  0.94668451     0.08000
H4192       H  0.13231571  0.71941248  0.99080440     0.04800
C4193       C  0.07822353  0.70042870  0.53318307    -0.21000
C4194       C  0.08976758  0.67928574  0.55098449    -0.07600
C4195       C  0.11147927  0.68428753  0.57272505     0.13300
C4196       C  0.12216623  0.70933321  0.57334212    -0.21100
C4197       C  0.11101892  0.73011823  0.55496328    -0.07600
C4198       C  0.08816307  0.72588671  0.53573476     0.13300
C4199       C  0.07443913  0.74796244  0.51750703    -0.24400
H4200       H  0.06130978  0.69709237  0.51713874     0.14500
H4201       H  0.13900111  0.71300231  0.58947349     0.14600
C4202       C  0.12318335  0.66390880  0.59660172    -0.24400
H4203       H  0.05724152  0.74106311  0.50290685     0.04800
H4204       H  0.08744353  0.75763343  0.49822478     0.08000
H4205       H  0.06791495  0.76240043  0.53740155     0.08000
H4206       H  0.13237012  0.64839852  0.58066893     0.08000
H4207       H  0.10811116  0.65546986  0.61414994     0.08000
H4208       H  0.13832254  0.67219625  0.61393904     0.04800
C4209       C  0.43398778  0.87512784  0.93384662    -0.21000
C4210       C  0.43193336  0.84865872  0.94272348    -0.07600
C4211       C  0.45425315  0.83466602  0.95224663     0.13300
C4212       C  0.47791391  0.84770587  0.95325813    -0.21100
C4213       C  0.48002543  0.87421054  0.94437437    -0.07600
C4214       C  0.45772825  0.88805476  0.93410505     0.13300
C4215       C  0.45846954  0.91650339  0.92419522    -0.24400
H4216       H  0.41691356  0.88567980  0.92590409     0.14500
H4217       H  0.49495667  0.83708592  0.96119209     0.14600
C4218       C  0.45327783  0.80625257  0.96237355    -0.24400
H4219       H  0.43903244  0.92416452  0.91799623     0.04800
H4220       H  0.47065458  0.91935570  0.90026448     0.08000
H4221       H  0.46624287  0.92804614  0.94652531     0.08000
H4222       H  0.44765855  0.79430740  0.93921442     0.08000
H4223       H  0.43925324  0.80329568  0.98427896     0.08000
H4224       H  0.47227147  0.79906184  0.97149827     0.04800
C4225       C  0.36133806  0.88036952  0.78351911    -0.21000
C4226       C  0.38265336  0.89712501  0.78562780    -0.07600
C4227       C  0.39065838  0.90553743  0.81954817     0.13300
C4228       C  0.37911815  0.89494798  0.85028859    -0.21100
C4229       C  0.36014636  0.87556167  0.84810915    -0.07600
C4230       C  0.35017242  0.86935147  0.81432446     0.13300
C4231       C  0.32914920  0.84937400  0.81069006    -0.24400
H4232       H  0.35529032  0.87356572  0.75769269     0.14500
H4233       H  0.38710324  0.89953969  0.87601535     0.14600
C4234       C  0.41290220  0.92409074  0.82339645    -0.24400
H4235       H  0.32334397  0.84681151  0.78261999     0.04800
H4236       H  0.31201858  0.85565840  0.82606998     0.08000
H4237       H  0.33574970  0.83026464  0.82085888     0.08000
H4238       H  0.40884956  0.94230898  0.80856040     0.08000
H4239       H  0.43069728  0.91515030  0.81287946     0.08000
H4240       H  0.41636693  0.92918726  0.85156575     0.04800
C4241       C  0.36776834  0.72726307  0.78684901    -0.21000
C4242       C  0.34926171  0.70750640  0.78871420    -0.07600
C4243       C  0.32936212  0.70949389  0.81413974     0.13300
C4244       C  0.32747148  0.73162078  0.83533364    -0.21100
C4245       C  0.34513351  0.75212704  0.83247186    -0.07600
C4246       C  0.36599327  0.74964432  0.80806182     0.13300
C4247       C  0.38636376  0.77031258  0.80331225    -0.24400
H4248       H  0.38243226  0.72624802  0.76636122     0.14500
H4249       H  0.31180718  0.73289754  0.85428549     0.14600
C4250       C  0.30914420  0.68885545  0.81790827    -0.24400
H4251       H  0.40024282  0.76529467  0.78194970     0.04800
H4252       H  0.39755532  0.77243174  0.82807447     0.08000
H4253       H  0.37733808  0.78911654  0.79589980     0.08000
H4254       H  0.31844756  0.66988243  0.82352685     0.08000
H4255       H  0.29783376  0.68813060  0.79322715     0.08000
H4256       H  0.29553179  0.69296220  0.83994578     0.04800
C4257       C  0.31446715  0.78443162  0.55585495    -0.21000
C4258       C  0.33886994  0.79226074  0.54322437    -0.07600
C4259       C  0.36100751  0.78146963  0.55853684     0.13300
C4260       C  0.35827448  0.76052329  0.58217879    -0.21100
C4261       C  0.33387330  0.75050303  0.59136699    -0.07600
C4262       C  0.31168678  0.76348171  0.57955064     0.13300
C4263       C  0.28519441  0.75409418  0.58960319    -0.24400
H4264       H  0.29742130  0.79277624  0.54388717     0.14500
H4265       H  0.37539735  0.75149100  0.59284557     0.14600
C4266       C  0.38745814  0.79087662  0.54812701    -0.24400
H4267       H  0.26995604  0.76574883  0.57647643     0.04800
H4268       H  0.28238767  0.75569960  0.61868118     0.08000
H4269       H  0.28281322  0.73347426  0.58150856     0.08000
H4270       H  0.38927311  0.81189085  0.55441147     0.08000
H4271       H  0.39075459  0.78809389  0.51929839     0.08000
H4272       H  0.40274438  0.78023300  0.56263921     0.04800
C4273       C  0.26256495  0.84211234  0.48683505    -0.21000
C4274       C  0.27305032  0.82007988  0.97352940    -0.07600
C4275       C  0.26039074  0.79703387  0.98538840     0.13300
C4276       C  0.24245915  0.79818697  0.01364836    -0.21100
C4277       C  0.23162825  0.82177647  0.52744439    -0.07600
C4278       C  0.24393610  0.84434633  0.51395021     0.13300
C4279       C  0.23789507  0.87093370  0.52854992    -0.24400
H4280       H  0.27244034  0.85950679  0.47777683     0.14500
H4281       H  0.23289445  0.78046347  0.02207726     0.14600
C4282       C  0.26567846  0.77085134  0.96912104    -0.24400
H4283       H  0.25061320  0.88614856  0.51697129     0.04800
H4284       H  0.24063565  0.87093149  0.55771690     0.08000
H4285       H  0.21781012  0.87644128  0.52230172     0.08000
H4286       H  0.28566922  0.76485533  0.97475211     0.08000
H4287       H  0.26232874  0.77166241  0.94010276     0.08000
H4288       H  0.25289970  0.75548342  0.98019130     0.04800
C4289       C  0.38752831  0.67971753  0.93197876    -0.21000
C4290       C  0.41426555  0.67724760  0.93554562    -0.07600
C4291       C  0.42972338  0.70004078  0.93484521     0.13300
C4292       C  0.41776467  0.72452714  0.93221985    -0.21100
C4293       C  0.39089491  0.72676538  0.93114892    -0.07600
C4294       C  0.37562723  0.70400715  0.93036600     0.13300
C4295       C  0.34675232  0.70496881  0.92684211    -0.24400
H4296       H  0.37558848  0.66246838  0.93120138     0.14500
H4297       H  0.42939269  0.74205598  0.93164699     0.14600
C4298       C  0.45867684  0.69888327  0.93608103    -0.24400
H4299       H  0.33818288  0.68524326  0.92442818     0.04800
H4300       H  0.34153611  0.71612946  0.90279062     0.08000
H4301       H  0.33809096  0.71423432  0.95055650     0.08000
H4302       H  0.46597671  0.68620078  0.91449652     0.08000
H4303       H  0.46508009  0.69125665  0.96212546     0.08000
H4304       H  0.46747976  0.71843773  0.93258244     0.04800
C4305       C  0.57334271  0.87118824  0.69403956    -0.21000
C4306       C  0.57656835  0.84438178  0.68850726    -0.07600
C4307       C  0.55437787  0.82825465  0.68648506     0.13300
C4308       C  0.52985445  0.83962577  0.68914495    -0.21100
C4309       C  0.52698005  0.86657810  0.69278514    -0.07600
C4310       C  0.54900150  0.88252896  0.69560765     0.13300
C4311       C  0.54710799  0.91149571  0.70153046    -0.24400
H4312       H  0.59002990  0.88364114  0.69661048     0.14500
H4313       H  0.51279889  0.82750335  0.68792867     0.14600
C4314       C  0.55610862  0.79914397  0.68227065    -0.24400
H4315       H  0.56631997  0.92069536  0.70441260     0.04800
H4316       H  0.53611090  0.91530869  0.72618132     0.08000
H4317       H  0.53750959  0.92097178  0.67868478     0.08000
H4318       H  0.56795986  0.79081364  0.70388490     0.08000
H4319       H  0.56463823  0.79423524  0.65613915     0.08000
H4320       H  0.53687303  0.78975548  0.68355710     0.04800
C4321       C  0.64162033  0.78699466  0.79463265    -0.21000
C4322       C  0.66473408  0.79927601  0.78642788    -0.07600
C4323       C  0.68701395  0.79300037  0.80602265     0.13300
C4324       C  0.68629638  0.77250376  0.83051315    -0.21100
C4325       C  0.66380323  0.75799681  0.83575316    -0.07600
C4326       C  0.64074770  0.76625968  0.81873895     0.13300
C4327       C  0.61489213  0.75387428  0.82541175    -0.24400
H4328       H  0.62460853  0.79198005  0.77952043     0.14500
H4329       H  0.70362494  0.76737281  0.84481403     0.14600
C4330       C  0.71204566  0.80702609  0.80055113    -0.24400
H4331       H  0.59955092  0.76289288  0.80910645     0.04800
H4332       H  0.60910179  0.75695838  0.85319190     0.08000
H4333       H  0.61531133  0.73288596  0.81874825     0.08000
H4334       H  0.71013528  0.82337153  0.78155125     0.08000
H4335       H  0.72661120  0.79308308  0.79058005     0.08000
H4336       H  0.71872966  0.81520840  0.82611589     0.04800
C4337       C  0.64497558  0.73571531  0.53507610    -0.21000
C4338       C  0.65938723  0.71288293  0.53870373    -0.07600
C4339       C  0.67891480  0.71201401  0.56449511     0.13300
C4340       C  0.68387044  0.73407039  0.58531435    -0.21100
C4341       C  0.67063207  0.75767547  0.57986627    -0.07600
C4342       C  0.65131061  0.75850932  0.55335008     0.13300
C4343       C  0.63809838  0.78337023  0.54221161    -0.24400
H4344       H  0.63092378  0.73673255  0.51403779     0.14500
H4345       H  0.69848659  0.73280556  0.60564496     0.14600
C4346       C  0.69560245  0.68836977  0.56926275    -0.24400
H4347       H  0.62709024  0.78087021  0.51740611     0.04800
H4348       H  0.65258092  0.79880663  0.53685219     0.08000
H4349       H  0.62427063  0.78971591  0.56280590     0.08000
H4350       H  0.71626227  0.70417899  0.05279275     0.08000
H4351       H  0.68978524  0.67216969  0.55161989     0.08000
H4352       H  0.69412221  0.68139371  0.59708050     0.04800
C4353       C  0.65754245  0.87147614  0.55956875    -0.21000
C4354       C  0.64869923  0.87993425  0.59283610    -0.07600
C4355       C  0.63055632  0.90035134  0.59408373     0.13300
C4356       C  0.61948518  0.90957618  0.56238348    -0.21100
C4357       C  0.62585576  0.89852535  0.52948447    -0.07600
C4358       C  0.64607906  0.88023580  0.52794719     0.13300
C4359       C  0.65450250  0.87190520  0.99837384    -0.24400
H4360       H  0.67110610  0.85548414  0.55851803     0.14500
H4361       H  0.60368682  0.92328822  0.56370327     0.14600
C4362       C  0.62085459  0.91037494  0.62907291    -0.24400
H4363       H  0.67004489  0.85731145  0.00172174     0.04800
H4364       H  0.66221861  0.88835862  0.98240550     0.08000
H4365       H  0.63854299  0.86252843  0.98370118     0.08000
H4366       H  0.63718888  0.91809151  0.64472547     0.08000
H4367       H  0.61151578  0.89433309  0.64399520     0.08000
H4368       H  0.60654355  0.92619659  0.62559593     0.04800
C4369       C  0.62853236  0.71327265  0.64775848    -0.21000
C4370       C  0.62636737  0.73052471  0.67639650    -0.07600
C4371       C  0.61151971  0.72348559  0.70611052     0.13300
C4372       C  0.59941171  0.69912430  0.70689146    -0.21100
C4373       C  0.60217302  0.68145135  0.67879976    -0.07600
C4374       C  0.61690549  0.68858939  0.64877265     0.13300
C4375       C  0.61974724  0.67068848  0.61745627    -0.24400
H4376       H  0.63944256  0.71913738  0.62457337     0.14500
H4377       H  0.58822522  0.69356015  0.73002601     0.14600
C4378       C  0.60816219  0.74180886  0.73667742    -0.24400
H4379       H  0.63087454  0.67996282  0.59561269     0.04800
H4380       H  0.60046343  0.66546510  0.60711572     0.08000
H4381       H  0.63007005  0.65273639  0.62542318     0.08000
H4382       H  0.59990863  0.76048180  0.72727964     0.08000
H4383       H  0.62715820  0.74550994  0.74889300     0.08000
H4384       H  0.59509005  0.73358651  0.75717931     0.04800
C4385       C  0.93603762  0.86700788  0.84171670    -0.21000
C4386       C  0.92929932  0.84457194  0.82318928    -0.07600
C4387       C  0.94808683  0.83108658  0.80360116     0.13300
C4388       C  0.97332199  0.84086866  0.80242997    -0.21100
C4389       C  0.98004415  0.86421497  0.81969016    -0.07600
C4390       C  0.96085840  0.87742700  0.83980653     0.13300
C4391       C  0.96546903  0.90309291  0.85817017    -0.24400
H4392       H  0.92154875  0.87666696  0.85756972     0.14500
H4393       H  0.98759163  0.83068825  0.78674582     0.14600
C4394       C  0.94124897  0.80716760  0.78265211    -0.24400
H4395       H  0.94828800  0.90979031  0.87316366     0.04800
H4396       H  0.97006820  0.91838001  0.83826914     0.08000
H4397       H  0.98141956  0.90127772  0.87735581     0.08000
H4398       H  0.92600219  0.81196151  0.76317468     0.08000
H4399       H  0.93413813  0.79168288  0.80067796     0.08000
H4400       H  0.95809043  0.79940455  0.76792610     0.04800
C4401       C  0.84753724  0.87368563  0.94214649    -0.21000
C4402       C  0.85461578  0.88220417  0.90813414    -0.07600
C4403       C  0.87222355  0.90306790  0.90504315     0.13300
C4404       C  0.88567667  0.91162656  0.93536376    -0.21100
C4405       C  0.88109475  0.90030376  0.96878825    -0.07600
C4406       C  0.86074418  0.88222391  0.97235574     0.13300
C4407       C  0.85118624  0.86244174  0.51122442    -0.24400
H4408       H  0.83407791  0.85762997  0.94461082     0.14500
H4409       H  0.90111038  0.92567533  0.93247809     0.14600
C4410       C  0.87782207  0.91512306  0.86942712    -0.24400
H4411       H  0.83670739  0.84658260  0.50962282     0.04800
H4412       H  0.84428922  0.87695292  0.53080405     0.08000
H4413       H  0.86947894  0.85383312  0.52070411     0.08000
H4414       H  0.85993408  0.92388661  0.85878920     0.08000
H4415       H  0.88468954  0.90024314  0.85046927     0.08000
H4416       H  0.89263880  0.93064191  0.87126834     0.04800
C4417       C  0.86508662  0.77467739  0.72478483    -0.21000
C4418       C  0.85008268  0.79681111  0.71931112    -0.07600
C4419       C  0.83223054  0.79723560  0.69130034     0.13300
C4420       C  0.82870704  0.77485789  0.67058796    -0.21100
C4421       C  0.84260317  0.75198662  0.67756310    -0.07600
C4422       C  0.86101901  0.75197767  0.70537388     0.13300
C4423       C  0.87581490  0.72789758  0.71614806    -0.24400
H4424       H  0.87810771  0.77421507  0.74720038     0.14500
H4425       H  0.81562773  0.77550628  0.64831148     0.14600
C4426       C  0.81701443  0.82146607  0.68349698    -0.24400
H4427       H  0.88617772  0.73076064  0.74150754     0.04800
H4428       H  0.89071986  0.72303690  0.69618783     0.08000
H4429       H  0.86239715  0.71126117  0.71974586     0.08000
H4430       H  0.83040660  0.83751483  0.67640768     0.08000
H4431       H  0.80570584  0.82736570  0.70704774     0.08000
H4432       H  0.80352063  0.81855269  0.66110892     0.04800
C4433       C  0.85265757  0.75610922  0.93805246    -0.21000
C4434       C  0.82954799  0.75767606  0.91888055    -0.07600
C4435       C  0.81188078  0.73674259  0.92136394     0.13300
C4436       C  0.81654449  0.71654753  0.94583822    -0.21100
C4437       C  0.83905687  0.71599636  0.96633847    -0.07600
C4438       C  0.85781417  0.73540473  0.96099089     0.13300
C4439       C  0.84952020  0.68831856  0.43679631    -0.24400
H4440       H  0.86714774  0.77114731  0.93511735     0.14500
H4441       H  0.80179264  0.70202361  0.95075207     0.14600
C4442       C  0.78777811  0.73592903  0.89942112    -0.24400
H4443       H  0.83759425  0.67208544  0.44731688     0.04800
H4444       H  0.86786694  0.68926095  0.45169390     0.08000
H4445       H  0.85410475  0.68406827  0.40861930     0.08000
H4446       H  0.79278926  0.73435953  0.87090571     0.08000
H4447       H  0.77628641  0.75381251  0.90396051     0.08000
H4448       H  0.77571481  0.71874549  0.90612474     0.04800
C4449       C  0.76887139  0.81111506  0.75410911    -0.21000
C4450       C  0.77179393  0.83328290  0.77540949    -0.07600
C4451       C  0.75825228  0.85602328  0.76597697     0.13300
C4452       C  0.74089696  0.85537163  0.73719517    -0.21100
C4453       C  0.73750924  0.83280228  0.71625207    -0.07600
C4454       C  0.75311259  0.81088913  0.72395875     0.13300
C4455       C  0.75350982  0.78687312  0.70111373    -0.24400
H4456       H  0.77949683  0.79368514  0.76053592     0.14500
H4457       H  0.72924388  0.87238237  0.73179997     0.14600
C4458       C  0.76126831  0.88057219  0.78720200    -0.24400
H4459       H  0.76910520  0.77329116  0.70894144     0.04800
H4460       H  0.75701529  0.79240185  0.67303109     0.08000
H4461       H  0.73520167  0.77606480  0.70380588     0.08000
H4462       H  0.78147358  0.88747645  0.78573738     0.08000
H4463       H  0.75608603  0.87671221  0.81531365     0.08000
H4464       H  0.74868666  0.89638004  0.77714260     0.04800
C4465       C  0.86489593  0.71285765  0.80668718    -0.21000
C4466       C  0.87843884  0.73208433  0.82533568    -0.07600
C4467       C  0.90270829  0.72576031  0.84026255     0.13300
C4468       C  0.91295374  0.70086277  0.83492604    -0.21100
C4469       C  0.89940436  0.68185774  0.81622249    -0.07600
C4470       C  0.87503026  0.68783483  0.80202606     0.13300
C4471       C  0.86019956  0.66836098  0.78047922    -0.24400
H4472       H  0.84625429  0.71741971  0.79554230     0.14500
H4473       H  0.93168623  0.69606272  0.84563650     0.14600
C4474       C  0.91827465  0.74490490  0.86155256    -0.24400
H4475       H  0.84195178  0.67662153  0.77021533     0.04800
H4476       H  0.85529425  0.65116168  0.79703975     0.08000
H4477       H  0.87201947  0.66225366  0.75741963     0.08000
H4478       H  0.90794674  0.74981084  0.88644659     0.08000
H4479       H  0.92180044  0.76279162  0.84579435     0.08000
H4480       H  0.93728090  0.73685541  0.86918387     0.04800
loop_ 
_geom_bond_atom_site_label_1 
_geom_bond_atom_site_label_2 
_geom_bond_distance 
_geom_bond_site_symmetry_2 
_ccdc_geom_bond_type 
O1           C16   1.257       .  A
O1           Al9   1.876       .  S
C2           O12   1.268       .  A
C2            O3   1.253       .  A
C2         C2178   1.456       .  S
O3           Al5   1.869       .  S
O4            C6   1.262       .  A
O4           Al5   1.896       .  S
Al5          O13   1.902       .  S
Al5          O15   1.896       .  S
Al5          O14   1.787       .  S
C6           O19   1.260       .  A
C6         C2226   1.489       .  S
O7           C17   1.258       .  A
O7           Al9   1.898       .  S
O8           C21   1.278       .  A
O8          Al18   1.959       .  S
Al9          O22   1.896       .  S
Al9          O19   1.912       .  S
Al9          O14   1.772       .  S
O10          C17   1.263       .  A
O10         Al18   1.913       .  S
O11          C20   1.269       .  A
O11         Al18   1.951       .  S
O12         Al18   1.938       .  S
O13          C20   1.267       .  A
O14         Al18   1.787       .  S
O15          C16   1.255       .  A
C16        C2194   1.455       .  S
C17        C2146   1.490       .  S
C20        C2210   1.498       .  S
C21          O22   1.263       .  A
C21        C2162   1.494       .  S
O23          C38   1.257       .  A
O23         Al31   1.883       .  S
C24          O34   1.271       .  A
C24          O25   1.257       .  A
C24        C2082   1.459       .  S
O25         Al27   1.882       .  S
O26          C28   1.259       .  A
O26         Al27   1.893       .  S
Al27         O35   1.919       .  S
Al27         O37   1.907       .  S
Al27         O36   1.788       .  S
C28          O41   1.258       .  A
C28        C2130   1.466       .  S
O29          C39   1.252       .  A
O29         Al31   1.881       .  S
O30          C43   1.275       .  A
O30         Al40   1.943       .  S
Al31         O44   1.914       .  S
Al31         O41   1.905       .  S
Al31         O36   1.774       .  S
O32          C39   1.261       .  A
O32         Al40   1.926       .  S
O33          C42   1.265       .  A
O33         Al40   1.928       .  S
O34         Al40   1.934       .  S
O35          C42   1.269       .  A
O36         Al40   1.790       .  S
O37          C38   1.261       .  A
C38        C2101   1.487       .  S
C39        C2066   1.491       .  S
C42        C2213   1.508       .  S
C43          O44   1.267       .  A
C43        C2114   1.487       .  S
O45          C60   1.263       .  A
O45         Al53   1.903       .  S
C46        O2296   1.257   1_554  A
C46        O2287   1.275   1_554  A
C46        C2018   1.463       .  S
O47        C2286   1.273       .  A
O47         Al49   1.942       .  S
O48          C50   1.263       .  A
O48         Al49   1.930       .  S
Al49         O57   1.918       .  S
Al49         O59   1.945       .  S
Al49         O58   1.789       .  S
C50          O63   1.251       .  A
C50        C1970   1.484       .  S
O51          C61   1.259       .  A
O51         Al53   1.900       .  S
O52          C65   1.264       .  A
O52         Al62   1.920       .  S
Al53         O66   1.878       .  S
Al53         O63   1.874       .  S
Al53         O58   1.777       .  S
O54          C61   1.256       .  A
O54         Al62   1.887       .  S
O55          C64   1.271       .  A
O55         Al62   1.922       .  S
O56        C2286   1.256       .  A
O56         Al62   1.864       .  S
O57          C64   1.264       .  A
O58         Al62   1.786       .  S
O59          C60   1.273       .  A
C60        C1989   1.485       .  S
C61        C2053   1.478       .  S
C64        C2034   1.508       .  S
C65          O66   1.255       .  A
C65        C2005   1.490       .  S
O67          C82   1.263       .  A
O67         Al75   1.895       .  S
C68        O2318   1.268       .  A
C68        O2309   1.283       .  A
C68        C1941   1.460       .  S
O69        C2308   1.273   1_554  A
O69         Al71   1.944       .  S
O70          C72   1.259       .  A
O70         Al71   1.924       .  S
Al71         O79   1.938       .  S
Al71         O81   1.959       .  S
Al71         O80   1.788       .  S
C72          O85   1.251       .  A
C72        C1890   1.464       .  S
O73          C83   1.259       .  A
O73         Al75   1.904       .  S
O74          C87   1.263       .  A
O74         Al84   1.926       .  S
Al75         O88   1.867       .  S
Al75         O85   1.878       .  S
Al75         O80   1.771       .  S
O76          C83   1.260       .  A
O76         Al84   1.897       .  S
O77          C86   1.273       .  A
O77         Al84   1.920       .  S
O78        C2308   1.256   1_554  A
O78         Al84   1.878       .  S
O79          C86   1.266       .  A
O80         Al84   1.795       .  S
O81          C82   1.279       .  A
C82        C1906   1.487       .  S
C83        C1957   1.468       .  S
C86        C2037   1.507       .  S
C87          O88   1.251       .  A
C87        C1922   1.491       .  S
O89         C104   1.259       .  A
O89         Al97   1.884       .  S
C90         O100   1.272       .  A
C90          O91   1.256       .  A
C90        C2002   1.457       .  S
O91         Al93   1.879       .  S
O92          C94   1.260       .  A
O92         Al93   1.894       .  S
Al93        O101   1.920       .  S
Al93        O103   1.897       .  S
Al93        O102   1.787       .  S
C94         O107   1.262       .  A
C94        C1874   1.483       .  S
O95         C105   1.256       .  A
O95         Al97   1.897       .  S
O96         C109   1.278       .  A
O96        Al106   1.947       .  S
Al97        O110   1.919       .  S
Al97        O107   1.913       .  S
Al97        O102   1.780       .  S
O98         C105   1.257       .  A
O98        Al106   1.918       .  S
O99         C108   1.267       .  A
O99        Al106   1.945       .  S
O100       Al106   1.936       .  S
O101        C108   1.269       .  A
O102       Al106   1.789       .  S
O103        C104   1.257       .  A
C104       C2021   1.478       .  S
C105       C1842   1.496       .  S
C108       C1861   1.518       .  S
C109        O110   1.269       .  A
C109       C1829   1.490       .  S
O111        C126   1.252       .  A
O111       Al119   1.873       .  S
C112        O122   1.269       .  A
C112        O113   1.256       .  A
C112       C1925   1.455       .  S
O113       Al115   1.880       .  S
O114        C116   1.261       .  A
O114       Al115   1.899       .  S
Al115       O123   1.916       .  S
Al115       O125   1.939       .  S
Al115       O124   1.791       .  S
C116        O129   1.264       .  A
C116       C1813   1.490       .  S
O117        C127   1.253       .  A
O117       Al119   1.880       .  S
O118        C131   1.276       .  A
O118       Al128   1.951       .  S
Al119       O132   1.903       .  S
Al119       O129   1.926       .  S
Al119       O124   1.766       .  S
O120        C127   1.264       .  A
O120       Al128   1.939       .  S
O121        C130   1.270       .  A
O121       Al128   1.955       .  S
O122       Al128   1.932       .  S
O123        C130   1.272       .  A
O124       Al128   1.788       .  S
O125        C126   1.264       .  A
C126       C1938   1.493       .  S
C127       C1781   1.470       .  S
C130       C1858   1.505       .  S
C131        O132   1.264       .  A
C131       C1797   1.490       .  S
O133       C2388   1.271       .  A
O133      Al2381   1.922   1_554  S
C134        O144   1.257       .  A
C134        O135   1.273       .  A
C134       C1714   1.461       .  S
O135       Al137   1.940       .  S
O136        C138   1.256       .  A
O136       Al137   1.910       .  S
Al137       O145   1.916       .  S
Al137       O147   1.951       .  S
Al137       O146   1.791       .  S
C138        O151   1.258       .  A
C138       C1730   1.487       .  S
O139        C149   1.259       .  A
O139       Al141   1.912       .  S
O140       C2393   1.261       .  A
O140       Al150   1.898       .  S
Al141       O151   1.894       .  S
Al141      O2373   1.912       .  S
Al141      O2394   1.883       .  S
Al141       O146   1.779       .  S
O142        C149   1.259       .  A
O142       Al150   1.892       .  S
O143        C152   1.267       .  A
O143       Al150   1.919       .  S
O144       Al150   1.876       .  S
O145        C152   1.261       .  A
O146       Al150   1.787       .  S
O147        C148   1.277       .  A
C148       O2373   1.267       .  A
C148       C3922   1.491       .  S
C149       C1762   1.480   1_655  S
C152       C1746   1.508       .  S
C153        O154   1.259       .  A
C153       O2380   1.264   1_554  A
C153       C1698   1.489   1_655  S
O154      Al2381   1.885   1_554  S
O155        C170   1.266       .  A
O155       Al163   1.908       .  S
C156        O166   1.256       .  A
C156        O157   1.272       .  A
C156       C1666   1.460       .  S
O157       Al159   1.937       .  S
O158        C160   1.258       .  A
O158       Al159   1.914       .  S
Al159       O167   1.917       .  S
Al159       O169   1.949       .  S
Al159       O168   1.793       .  S
C160        O173   1.255       .  A
C160       C2229   1.470       .  S
O161        C171   1.259       .  A
O161       Al163   1.908       .  S
O162        C175   1.260       .  A
O162       Al172   1.915       .  S
Al163       O176   1.880       .  S
Al163       O173   1.893       .  S
Al163       O168   1.775       .  S
O164        C171   1.262       .  A
O164       Al172   1.901       .  S
O165        C174   1.270       .  A
O165       Al172   1.916       .  S
O166       Al172   1.871       .  S
O167        C174   1.261       .  A
O168       Al172   1.790       .  S
O169        C170   1.275       .  A
C170       C1634   1.491       .  S
C171       C1778   1.494   1_655  S
C174       C1749   1.498       .  S
C175        O176   1.258       .  A
C175       C1650   1.486   1_655  S
O177        C192   1.264       .  A
O177       Al185   1.907       .  S
C178        O188   1.257       .  A
C178        O179   1.274       .  A
C178       C1605   1.464       .  S
O179       Al181   1.946       .  S
O180        C182   1.260       .  A
O180       Al181   1.926       .  S
Al181       O189   1.939       .  S
Al181       O191   1.973       .  S
Al181       O190   1.787       .  S
C182        O195   1.255       .  A
C182       C2133   1.486       .  S
O183        C193   1.258       .  A
O183       Al185   1.907       .  S
O184        C197   1.264       .  A
O184       Al194   1.914       .  S
Al185       O198   1.868       .  S
Al185       O195   1.877       .  S
Al185       O190   1.772       .  S
O186        C193   1.258       .  A
O186       Al194   1.897       .  S
O187        C196   1.268       .  A
O187       Al194   1.913       .  S
O188       Al194   1.880       .  S
O189        C196   1.264       .  A
O190       Al194   1.790       .  S
O191        C192   1.282       .  A
C192       C1570   1.499       .  S
C193       C1845   1.471       .  S
C196       C1621   1.506       .  S
C197        O198   1.253       .  A
C197       C1589   1.487       .  S
O199        C214   1.262       .  A
O199      Al2447   1.877       .  S
C200        O210   1.260       .  A
C200        O201   1.270       .  A
C200       C1522   1.456       .  S
O201       Al203   1.926       .  S
O202        C204   1.257       .  A
O202       Al203   1.911       .  S
Al203       O211   1.927       .  S
Al203       O213   1.940       .  S
Al203       O212   1.799       .  S
C204        O217   1.257       .  A
C204       C1538   1.485       .  S
O205        C215   1.257       .  A
O205       Al207   1.899       .  S
O206       C2459   1.262   1_554  A
O206       Al216   1.915       .  S
Al207       O217   1.903       .  S
Al207      O2439   1.904   1_554  S
Al207      O2460   1.883   1_554  S
Al207       O212   1.781       .  S
O208        C215   1.260       .  A
O208       Al216   1.901       .  S
O209        C218   1.269       .  A
O209       Al216   1.926       .  S
O210       Al216   1.882       .  S
O211        C218   1.262       .  A
O212       Al216   1.793       .  S
O213       C2454   1.276   1_554  A
C214       O2453   1.284       .  A
C214       C1493   1.502       .  S
C215       C1557   1.471       .  S
C218       C1618   1.516       .  S
C219        O220   1.252       .  A
C219       O2446   1.270       .  A
C219       C1506   1.496       .  S
O220      Al2447   1.856       .  S
O221        C236   1.247       .  A
O221       Al229   1.862       .  S
C222       O2472   1.276       .  A
C222       O2463   1.254       .  A
C222       C1442   1.468   1_556  S
O223       C2462   1.255       .  A
O223       Al225   1.860       .  S
O224        C226   1.261       .  A
O224       Al225   1.901       .  S
Al225       O233   1.943       .  S
Al225       O235   1.928       .  S
Al225       O234   1.799       .  S
C226        O239   1.259       .  A
C226       C1733   1.475       .  S
O227        C237   1.251       .  A
O227       Al229   1.887       .  S
O228        C241   1.278       .  A
O228       Al238   1.961       .  S
Al229       O242   1.888       .  S
Al229       O239   1.903       .  S
Al229       O234   1.776       .  S
O230        C237   1.255       .  A
O230       Al238   1.902       .  S
O231        C240   1.258       .  A
O231       Al238   1.906       .  S
O232       C2462   1.277       .  A
O232       Al238   1.952       .  S
O233        C240   1.277       .  A
O234       Al238   1.781       .  S
O235        C236   1.262       .  A
C236       C1461   1.491       .  S
C237       C1410   1.460       .  S
C240       C1474   1.508       .  S
C241        O242   1.262       .  A
C241       C1426   1.486       .  S
O243        C258   1.256       .  A
O243       Al251   1.877       .  S
C244       O2494   1.266       .  A
C244       O2485   1.244       .  A
C244       C1365   1.456       .  S
O245       C2484   1.255   1_554  A
O245       Al247   1.857       .  S
O246        C248   1.262       .  A
O246       Al247   1.911       .  S
Al247       O255   1.941       .  S
Al247       O257   1.920       .  S
Al247       O256   1.798       .  S
C248        O261   1.257       .  A
C248       C1541   1.482       .  S
O249        C259   1.253       .  A
O249       Al251   1.884       .  S
O250        C263   1.274       .  A
O250       Al260   1.947       .  S
Al251       O264   1.892       .  S
Al251       O261   1.888       .  S
Al251       O256   1.781       .  S
O252        C259   1.258       .  A
O252       Al260   1.910       .  S
O253        C262   1.263       .  A
O253       Al260   1.927       .  S
O254       C2484   1.269       .  A
O254       Al260   1.921   1_556  S
O255        C262   1.276       .  A
O256       Al260   1.792       .  S
O257        C258   1.260       .  A
C258       C1378   1.482       .  S
C259       C1346   1.480       .  S
C262       C1477   1.513       .  S
C263        O264   1.262       .  A
C263       C1397   1.483       .  S
O265       C2520   1.264       .  A
O265      Al2513   1.905   1_554  S
C266        O276   1.256       .  A
C266        O267   1.270       .  A
C266       C1330   1.465       .  S
O267       Al269   1.940       .  S
O268        C270   1.261       .  A
O268       Al269   1.925       .  S
Al269       O277   1.940       .  S
Al269       O279   1.948       .  S
Al269       O278   1.789       .  S
C270        O283   1.255       .  A
C270       C1282   1.488       .  S
O271        C281   1.260       .  A
O271       Al273   1.898       .  S
O272       C2525   1.258       .  A
O272       Al282   1.909       .  S
Al273       O283   1.890       .  S
Al273      O2505   1.901       .  S
Al273      O2526   1.881       .  S
Al273       O278   1.776       .  S
O274        C281   1.259       .  A
O274       Al282   1.892       .  S
O275        C284   1.268       .  A
O275       Al282   1.909       .  S
O276       Al282   1.882       .  S
O277        C284   1.266       .  A
O278       Al282   1.789       .  S
O279        C280   1.276       .  A
C280       O2505   1.264       .  A
C280       C3509   1.489       .  S
C281       C1413   1.487   1_455  S
C284       C1298   1.496       .  S
C285        O286   1.259       .  A
C285       O2512   1.260   1_554  A
C285       C1317   1.475   1_455  S
O286      Al2513   1.885   1_554  S
O287        C302   1.271       .  A
O287       Al295   1.921       .  S
C288        O298   1.255       .  A
C288        O289   1.275       .  A
C288       C1250   1.461       .  S
O289       Al291   1.952       .  S
O290        C292   1.258       .  A
O290       Al291   1.921       .  S
Al291       O299   1.947       .  S
Al291       O301   1.948       .  S
Al291       O300   1.789       .  S
C292        O305   1.253       .  A
C292       C1810   1.484       .  S
O293        C303   1.262       .  A
O293       Al295   1.908       .  S
O294        C307   1.253       .  A
O294       Al304   1.882       .  S
Al295       O308   1.878       .  S
Al295       O305   1.896       .  S
Al295       O300   1.776       .  S
O296        C303   1.259       .  A
O296       Al304   1.885       .  S
O297        C306   1.266       .  A
O297       Al304   1.911       .  S
O298       Al304   1.877       .  S
O299        C306   1.268       .  A
O300       Al304   1.787       .  S
O301        C302   1.279       .  A
C302       C1909   1.492       .  S
C303       C2149   1.472   1_455  S
C306       C1301   1.512       .  S
C307        O308   1.257       .  A
C307       C1234   1.472   1_455  S
O309        C324   1.255       .  A
O309       Al317   1.870       .  S
C310       O2560   1.279       .  A
C310       O2551   1.256       .  A
C310       C1202   1.477   1_556  S
O311       C2550   1.258       .  A
O311       Al313   1.879       .  S
O312        C314   1.260       .  A
O312       Al313   1.899       .  S
Al313       O321   1.913       .  S
Al313       O323   1.899       .  S
Al313       O322   1.780       .  S
C314        O327   1.260       .  A
C314       C1285   1.486       .  S
O315        C325   1.254       .  A
O315       Al317   1.888       .  S
O316        C329   1.279       .  A
O316       Al326   1.958       .  S
Al317       O330   1.914       .  S
Al317       O327   1.903       .  S
Al317       O322   1.775       .  S
O318        C325   1.262       .  A
O318       Al326   1.934       .  S
O319        C328   1.264       .  A
O319       Al326   1.949       .  S
O320       C2550   1.276       .  A
O320       Al326   1.942       .  S
O321        C328   1.266       .  A
O322       Al326   1.790       .  S
O323        C324   1.258       .  A
C324       C1218   1.465       .  S
C325       C1765   1.494       .  S
C328       C1170   1.517       .  S
C329        O330   1.267       .  A
C329       C1186   1.492       .  S
O331        C346   1.255       .  A
O331       Al339   1.856       .  S
C332       O2582   1.273       .  A
C332       O2573   1.249       .  A
C332       C1125   1.479       .  S
O333       C2572   1.249       .  A
O333       Al335   1.844       .  S
O334        C336   1.259       .  A
O334       Al335   1.893       .  S
Al335       O343   1.924       .  S
Al335       O345   1.910       .  S
Al335       O344   1.775       .  S
C336        O349   1.269       .  A
C336       C1154   1.481       .  S
O337        C347   1.254       .  A
O337       Al339   1.880       .  S
O338        C351   1.279       .  A
O338       Al348   1.990       .  S
Al339       O352   1.867       .  S
Al339       O349   1.937       .  S
Al339       O344   1.769       .  S
O340        C347   1.265       .  A
O340       Al348   1.927       .  S
O341        C350   1.267       .  A
O341       Al348   1.923       .  S
O342       C2572   1.274       .  A
O342       Al348   1.979       .  S
O343        C350   1.266       .  A
O344       Al348   1.793       .  S
O345        C346   1.266       .  A
C346       C1138   1.477       .  S
C347       C1554   1.475       .  S
C350       C1173   1.503       .  S
C351        O352   1.257       .  A
C351       C1106   1.486       .  S
O353        C368   1.259       .  A
O353      Al2601   1.883       .  S
C354        O364   1.273       .  A
C354        O355   1.255       .  A
C354       C1653   1.459       .  S
O355       Al357   1.863       .  S
O356        C358   1.259       .  A
O356       Al357   1.891       .  S
Al357       O365   1.914       .  S
Al357       O367   1.898       .  S
Al357       O366   1.796       .  S
C358        O371   1.255       .  A
C358       C1093   1.465   1_455  S
O359        C369   1.257       .  A
O359       Al361   1.899       .  S
O360        C373   1.279   1_554  A
O360       Al370   1.958       .  S
Al361       O371   1.890       .  S
Al361      O2593   1.880   1_554  S
Al361      O2614   1.903   1_554  S
Al361       O366   1.782       .  S
O362        C369   1.256       .  A
O362       Al370   1.909       .  S
O363        C372   1.260       .  A
O363       Al370   1.921       .  S
O364       Al370   1.941       .  S
O365        C372   1.268       .  A
O366       Al370   1.791       .  S
O367       C2608   1.257   1_554  A
C368       O2607   1.258       .  A
C368       C1669   1.491   1_455  S
C369       C1954   1.494       .  S
C372       C1074   1.502       .  S
C373       O2614   1.265       .  A
C373       C4034   1.495       .  S
O374       C2613   1.265       .  A
O374      Al2601   1.910       .  S
O375        C390   1.260       .  A
O375       Al383   1.884       .  S
C376        O386   1.271       .  A
C376        O377   1.258       .  A
C376       C1701   1.467       .  S
O377       Al379   1.883       .  S
O378        C380   1.259       .  A
O378       Al379   1.902       .  S
Al379       O387   1.921       .  S
Al379       O389   1.924       .  S
Al379       O388   1.785       .  S
C380        O393   1.256       .  A
C380       C1061   1.470   1_455  S
O381        C391   1.254       .  A
O381       Al383   1.882       .  S
O382        C395   1.276       .  A
O382       Al392   1.956       .  S
Al383       O396   1.912       .  S
Al383       O393   1.899       .  S
Al383       O388   1.778       .  S
O384        C391   1.260       .  A
O384       Al392   1.916       .  S
O385        C394   1.265       .  A
O385       Al392   1.924       .  S
O386       Al392   1.940       .  S
O387        C394   1.269       .  A
O388       Al392   1.790       .  S
O389        C390   1.266       .  A
C390       C1717   1.489   1_455  S
C391       C1042   1.462       .  S
C394       C1077   1.514       .  S
C395        O396   1.264       .  A
C395       C1189   1.493       .  S
O397        C412   1.256       .  A
O397      Al2645   1.880       .  S
C398        O408   1.267       .  A
C398        O399   1.259       .  A
C398       C1237   1.452       .  S
O399       Al401   1.877       .  S
O400        C402   1.258   1_655  A
O400       Al401   1.898       .  S
Al401       O409   1.918       .  S
Al401       O411   1.931       .  S
Al401       O410   1.788       .  S
C402        O415   1.260   1_455  A
C402       C1893   1.486       .  S
O403        C413   1.256       .  A
O403       Al405   1.885       .  S
O404        C417   1.271   1_554  A
O404       Al414   1.935       .  S
Al405       O415   1.911       .  S
Al405      O2637   1.880   1_554  S
Al405      O2658   1.921   1_554  S
Al405       O410   1.771       .  S
O406        C413   1.259       .  A
O406       Al414   1.916       .  S
O407        C416   1.261       .  A
O407       Al414   1.914       .  S
O408       Al414   1.913       .  S
O409        C416   1.271       .  A
O410       Al414   1.791       .  S
O411       C2652   1.266   1_554  A
C412       O2651   1.265       .  A
C412       C1253   1.499       .  S
C413       C1013   1.487       .  S
C416       C1029   1.502       .  S
C417       O2658   1.267       .  A
C417       C4405   1.486       .  S
O418       C2657   1.264       .  A
O418      Al2645   1.905       .  S
O419        C434   1.258       .  A
O419       Al427   1.886       .  S
C420        O430   1.273       .  A
C420        O421   1.255       .  A
C420       C1314   1.472       .  S
O421       Al423   1.861       .  S
O422        C424   1.255       .  A
O422       Al423   1.879       .  S
Al423       O431   1.917       .  S
Al423       O433   1.914       .  S
Al423       O432   1.789       .  S
C424        O437   1.259       .  A
C424        C994   1.477   1_655  S
O425        C435   1.253       .  A
O425       Al427   1.879       .  S
O426        C439   1.273       .  A
O426       Al436   1.948       .  S
Al427       O440   1.908       .  S
Al427       O437   1.903       .  S
Al427       O432   1.782       .  S
O428        C435   1.262       .  A
O428       Al436   1.934       .  S
O429        C438   1.264       .  A
O429       Al436   1.918       .  S
O430       Al436   1.946       .  S
O431        C438   1.269       .  A
O432       Al436   1.796       .  S
O433        C434   1.262       .  A
C434       C1333   1.489   1_655  S
C435        C978   1.490       .  S
C438       C1026   1.511       .  S
C439        O440   1.264       .  A
C439       C1429   1.491       .  S
O441        C456   1.264       .  A
O441       Al449   1.905       .  S
C442       O2692   1.256       .  A
C442       O2683   1.271       .  A
C442       C2197   1.469       .  S
O443       C2682   1.272       .  A
O443       Al445   1.936       .  S
O444        C446   1.256       .  A
O444       Al445   1.907       .  S
Al445       O453   1.909       .  S
Al445       O455   1.951       .  S
Al445       O454   1.791       .  S
C446        O459   1.254       .  A
C446       C1090   1.485       .  S
O447        C457   1.257       .  A
O447       Al449   1.898       .  S
O448        C461   1.264       .  A
O448       Al458   1.918       .  S
Al449       O462   1.874       .  S
Al449       O459   1.884       .  S
Al449       O454   1.779       .  S
O450        C457   1.258       .  A
O450       Al458   1.889       .  S
O451        C460   1.271       .  A
O451       Al458   1.919       .  S
O452       C2682   1.256       .  A
O452       Al458   1.876       .  S
O453        C460   1.259       .  A
O454       Al458   1.796       .  S
O455        C456   1.276       .  A
C456       C1637   1.488       .  S
C457       C1010   1.463       .  S
C460        C962   1.498       .  S
C461        O462   1.255       .  A
C461       C2181   1.497       .  S
O463        C478   1.266       .  A
O463       Al471   1.909       .  S
C464       O2714   1.259   1_554  A
C464       O2705   1.272   1_554  A
C464       C2098   1.460       .  S
O465       C2704   1.276       .  A
O465       Al467   1.951       .  S
O466        C468   1.260       .  A
O466       Al467   1.925       .  S
Al467       O475   1.938       .  S
Al467       O477   1.972       .  S
Al467       O476   1.790       .  S
C468        O481   1.251       .  A
C468        C930   1.485       .  S
O469        C479   1.255       .  A
O469       Al471   1.896       .  S
O470        C483   1.263       .  A
O470       Al480   1.913       .  S
Al471       O484   1.878       .  S
Al471       O481   1.885       .  S
Al471       O476   1.775       .  S
O472        C479   1.258       .  A
O472       Al480   1.901       .  S
O473        C482   1.272       .  A
O473       Al480   1.928       .  S
O474       C2704   1.255       .  A
O474       Al480   1.869       .  S
O475        C482   1.264       .  A
O476       Al480   1.789       .  S
O477        C478   1.283       .  A
C478       C1573   1.501       .  S
C479        C946   1.466       .  S
C482        C965   1.523       .  S
C483        O484   1.256       .  A
C483       C2085   1.490       .  S
O485        C500   1.265       .  A
O485       Al493   1.897       .  S
C486        O496   1.258       .  A
C486        O487   1.274       .  A
C486        C917   1.465       .  S
O487       Al489   1.940       .  S
O488        C490   1.256       .  A
O488       Al489   1.903       .  S
Al489       O497   1.912       .  S
Al489       O499   1.949       .  S
Al489       O498   1.788       .  S
C490        O503   1.254       .  A
C490       C1877   1.487       .  S
O491        C501   1.258       .  A
O491       Al493   1.889       .  S
O492        C505   1.258       .  A
O492       Al502   1.910       .  S
Al493       O506   1.877       .  S
Al493       O503   1.903       .  S
Al493       O498   1.778       .  S
O494        C501   1.261       .  A
O494       Al502   1.898       .  S
O495        C504   1.271       .  A
O495       Al502   1.932       .  S
O496       Al502   1.880       .  S
O497        C504   1.261       .  A
O498       Al502   1.800       .  S
O499        C500   1.277       .  A
C500       C1986   1.483       .  S
C501       C2069   1.468       .  S
C504        C882   1.501       .  S
C505        O506   1.256       .  A
C505        C898   1.487       .  S
O507       C2762   1.258       .  A
O507      Al2755   1.867       .  S
C508        O518   1.251       .  A
C508        O509   1.274       .  A
C508        C869   1.473       .  S
O509       Al511   1.962       .  S
O510        C512   1.259       .  A
O510       Al511   1.908       .  S
Al511       O519   1.920       .  S
Al511       O521   1.997       .  S
Al511       O520   1.783       .  S
C512        O525   1.254       .  A
C512       C1157   1.478       .  S
O513        C523   1.259       .  A
O513       Al515   1.899       .  S
O514       C2767   1.262   1_554  A
O514       Al524   1.898       .  S
Al515       O525   1.889       .  S
Al515      O2747   1.867   1_554  S
Al515      O2768   1.873   1_554  S
Al515       O520   1.773       .  S
O516        C523   1.263       .  A
O516       Al524   1.920       .  S
O517        C526   1.262       .  A
O517       Al524   1.924       .  S
O518       Al524   1.848       .  S
O519        C526   1.266       .  A
O520       Al524   1.774       .  S
O521        C522   1.282       .  A
C522       O2747   1.258   1_554  A
C522       C3074   1.498   1_554  S
C523       C1349   1.461       .  S
C526        C885   1.493       .  S
C527        O528   1.258       .  A
C527       O2754   1.266       .  A
C527        C853   1.480       .  S
O528      Al2755   1.868       .  S
O529        C544   1.265       .  A
O529       Al537   1.879       .  S
C530        O540   1.248       .  A
C530        O531   1.269       .  A
C530       C1141   1.449       .  S
O531       Al533   1.939       .  S
O532        C534   1.258       .  A
O532       Al533   1.933       .  S
Al533       O541   1.925       .  S
Al533       O543   2.003       .  S
Al533       O542   1.785       .  S
C534        O547   1.251       .  A
C534        C786   1.494       .  S
O535        C545   1.268       .  A
O535       Al537   1.899       .  S
O536        C549   1.259       .  A
O536       Al546   1.900       .  S
Al537       O550   1.865       .  S
Al537       O547   1.886       .  S
Al537       O542   1.779       .  S
O538        C545   1.269       .  A
O538       Al546   1.941       .  S
O539        C548   1.262       .  A
O539       Al546   1.911       .  S
O540       Al546   1.811       .  S
O541        C548   1.266       .  A
O542       Al546   1.793       .  S
O543        C544   1.287       .  A
C544        C837   1.510       .  S
C545        C818   1.495       .  S
C548        C802   1.501       .  S
C549        O550   1.253       .  A
C549       C1122   1.448       .  S
O551        C566   1.274       .  A
O551       Al559   1.880       .  S
C552        O562   1.245       .  A
C552        O553   1.265       .  A
C552       C1221   1.469       .  S
O553       Al555   1.930       .  S
O554        C556   1.246       .  A
O554       Al555   1.906       .  S
Al555       O563   1.903       .  S
Al555       O565   2.007       .  S
Al555       O564   1.773       .  S
C556        O569   1.240       .  A
C556        C997   1.477       .  S
O557        C567   1.277       .  A
O557       Al559   1.906       .  S
O558        C571   1.260       .  A
O558       Al568   1.924       .  S
Al559       O572   1.830       .  S
Al559       O569   1.868       .  S
Al559       O564   1.776       .  S
O560        C567   1.274       .  A
O560       Al568   1.923       .  S
O561        C570   1.276       .  A
O561       Al568   1.943       .  S
O562       Al568   1.827       .  S
O563        C570   1.262       .  A
O564       Al568   1.794       .  S
O565        C566   1.293       .  A
C566       C1266   1.501       .  S
C567       C1045   1.482       .  S
C570        C805   1.510       .  S
C571        O572   1.240       .  A
C571       C1205   1.488       .  S
O573        C588   1.257       .  A
O573      Al2821   1.882   1_554  S
C574        O584   1.272       .  A
C574        O575   1.253       .  A
C574        C901   1.463       .  S
O575       Al577   1.863       .  S
O576        C578   1.258       .  A
O576       Al577   1.887       .  S
Al577       O585   1.907       .  S
Al577       O587   1.885       .  S
Al577       O586   1.776       .  S
C578        O591   1.261       .  A
C578       C1973   1.474       .  S
O579        C589   1.256       .  A
O579       Al581   1.885       .  S
O580        C593   1.274       .  A
O580       Al590   1.940       .  S
Al581       O591   1.911       .  S
Al581      O2813   1.888       .  S
Al581      O2834   1.906       .  S
Al581       O586   1.778       .  S
O582        C589   1.260       .  A
O582       Al590   1.918       .  S
O583        C592   1.265       .  A
O583       Al590   1.940       .  S
O584       Al590   1.940       .  S
O585        C592   1.265       .  A
O586       Al590   1.795       .  S
O587       C2828   1.253       .  A
C588       O2827   1.259   1_554  A
C588        C914   1.488       .  S
C589        C949   1.486       .  S
C592        C770   1.503       .  S
C593       O2834   1.266       .  A
C593       C4357   1.482       .  S
O594       C2833   1.265       .  A
O594      Al2821   1.901   1_554  S
O595        C610   1.266       .  A
O595       Al603   1.899       .  S
C596        O606   1.257       .  A
C596        O597   1.260       .  A
C596        C850   1.443       .  S
O597       Al599   1.858       .  S
O598        C600   1.248       .  A
O598       Al599   1.868       .  S
Al599       O607   1.854       .  S
Al599       O609   1.887       .  S
Al599       O608   1.775       .  S
C600        O613   1.260       .  A
C600        C789   1.482       .  S
O601        C611   1.262       .  A
O601       Al603   1.904       .  S
O602        C615   1.264       .  A
O602       Al612   1.926       .  S
Al603       O616   1.907       .  S
Al603       O613   1.931       .  S
Al603       O608   1.789       .  S
O604        C611   1.260       .  A
O604       Al612   1.897       .  S
O605        C614   1.273       .  A
O605       Al612   1.954       .  S
O606       Al612   1.911       .  S
O607        C614   1.254       .  A
O608       Al612   1.810       .  S
O609        C610   1.261       .  A
C610        C866   1.451       .  S
C611        C754   1.484       .  S
C614        C773   1.502       .  S
C615        O616   1.262       .  A
C615       C1394   1.502       .  S
O617        C632   1.262       .  A
O617       Al625   1.890       .  S
C618        O628   1.257       .  A
C618        O619   1.273       .  A
C618       C1458   1.467       .  S
O619       Al621   1.946       .  S
O620        C622   1.258       .  A
O620       Al621   1.912       .  S
Al621       O629   1.925       .  S
Al621       O631   1.960       .  S
Al621       O630   1.783       .  S
C622        O635   1.254       .  A
C622       C1058   1.473       .  S
O623        C633   1.260       .  A
O623       Al625   1.901       .  S
O624        C637   1.259       .  A
O624       Al634   1.907       .  S
Al625       O638   1.869       .  S
Al625       O635   1.885       .  S
Al625       O630   1.777       .  S
O626        C633   1.264       .  A
O626       Al634   1.913       .  S
O627        C636   1.272       .  A
O627       Al634   1.934       .  S
O628       Al634   1.888       .  S
O629        C636   1.265       .  A
O630       Al634   1.795       .  S
O631        C632   1.278       .  A
C632       C1685   1.485       .  S
C633        C981   1.485       .  S
C636        C741   1.511       .  S
C637        O638   1.252       .  A
C637       C1445   1.481       .  S
O639        C654   1.267       .  A
O639       Al647   1.878       .  S
C640        O650   1.247       .  A
C640        O641   1.274       .  A
C640       C1381   1.467       .  S
O641       Al643   1.966       .  S
O642        C644   1.257       .  A
O642       Al643   1.927       .  S
Al643       O651   1.918       .  S
Al643       O653   2.007       .  S
Al643       O652   1.787       .  S
C644        O657   1.245       .  A
C644        C722   1.484       .  S
O645        C655   1.271       .  A
O645       Al647   1.917       .  S
O646        C659   1.259       .  A
O646       Al656   1.904       .  S
Al647       O660   1.859       .  S
Al647       O657   1.865       .  S
Al647       O652   1.785       .  S
O648        C655   1.269       .  A
O648       Al656   1.919       .  S
O649        C658   1.260       .  A
O649       Al656   1.906       .  S
O650       Al656   1.816       .  S
O651        C658   1.263       .  A
O652       Al656   1.789       .  S
O653        C654   1.289       .  A
C654       C1490   1.504       .  S
C655        C757   1.487       .  S
C658        C738   1.494       .  S
C659        O660   1.250       .  A
C659       C1362   1.464       .  S
O661        C676   1.254       .  A
O661      Al2909   1.874   1_554  S
C662        O672   1.269       .  A
C662        O663   1.256       .  A
C662       C1586   1.450       .  S
O663       Al665   1.870       .  S
O664        C666   1.255       .  A
O664       Al665   1.882       .  S
Al665       O673   1.917       .  S
Al665       O675   1.934       .  S
Al665       O674   1.790       .  S
C666        O679   1.260       .  A
C666        C933   1.473       .  S
O667        C677   1.254       .  A
O667       Al669   1.884       .  S
O668        C681   1.280       .  A
O668       Al678   1.960       .  S
Al669       O679   1.912       .  S
Al669      O2901   1.871       .  S
Al669      O2922   1.897       .  S
Al669       O674   1.769       .  S
O670        C677   1.258       .  A
O670       Al678   1.909       .  S
O671        C680   1.266       .  A
O671       Al678   1.936       .  S
O672       Al678   1.930       .  S
O673        C680   1.270       .  A
O674       Al678   1.787       .  S
O675       C2916   1.265       .  A
C676       O2915   1.267   1_554  A
C676       C1602   1.497       .  S
C677       C2050   1.457       .  S
C680        C709   1.514       .  S
C681       O2922   1.263       .  A
C681       C4066   1.489       .  S
O682       C2921   1.263       .  A
O682      Al2909   1.899   1_554  S
O683        C698   1.254       .  A
O683       Al691   1.870       .  S
C684        O694   1.272       .  A
C684        O685   1.258       .  A
C684       C1509   1.461       .  S
O685       Al687   1.877       .  S
O686        C688   1.260       .  A
O686       Al687   1.901       .  S
Al687       O695   1.916       .  S
Al687       O697   1.931       .  S
Al687       O696   1.789       .  S
C688        O701   1.259       .  A
C688        C725   1.485       .  S
O689        C699   1.253       .  A
O689       Al691   1.878       .  S
O690        C703   1.272       .  A
O690       Al700   1.945       .  S
Al691       O704   1.914       .  S
Al691       O701   1.905       .  S
Al691       O696   1.773       .  S
O692        C699   1.265       .  A
O692       Al700   1.937       .  S
O693        C702   1.261       .  A
O693       Al700   1.920       .  S
O694       Al700   1.930       .  S
O695        C702   1.271       .  A
O696       Al700   1.793       .  S
O697        C698   1.266       .  A
C698       C1525   1.490       .  S
C699        C821   1.486       .  S
C702        C706   1.505       .  S
C703        O704   1.265       .  A
C703       C1109   1.491       .  S
C705        C706   1.405       .  A
C705        C710   1.413       .  A
C705        H712   1.083       .  S
C706        C707   1.418       .  A
C707        C708   1.415       .  A
C707        C714   1.507       .  S
C708        C709   1.412       .  A
C708        H713   1.084       .  S
C709        C710   1.427       .  A
C710        C711   1.507       .  S
C711        H715   1.111       .  S
C711        H716   1.105       .  S
C711        H717   1.105       .  S
C714        H718   1.108       .  S
C714        H719   1.110       .  S
C714        H720   1.111       .  S
C721        C722   1.410       .  A
C721        C726   1.402       .  A
C721        H728   1.084       .  S
C722        C723   1.410       .  A
C723        C724   1.405       .  A
C723        C730   1.507       .  S
C724        C725   1.412       .  A
C724        H729   1.082       .  S
C725        C726   1.413       .  A
C726        C727   1.509       .  S
C727        H731   1.111       .  S
C727        H732   1.109       .  S
C727        H733   1.109       .  S
C730        H734   1.110       .  S
C730        H735   1.110       .  S
C730        H736   1.111       .  S
C737        C738   1.408       .  A
C737        C742   1.414       .  A
C737        H744   1.082       .  S
C738        C739   1.404       .  A
C739        C740   1.414       .  A
C739        C746   1.504       .  S
C740        C741   1.418       .  A
C740        H745   1.082       .  S
C741        C742   1.415       .  A
C742        C743   1.506       .  S
C743        H747   1.111       .  S
C743        H748   1.109       .  S
C743        H749   1.110       .  S
C746        H750   1.111       .  S
C746        H751   1.110       .  S
C746        H752   1.111       .  S
C753        C754   1.410       .  A
C753        C758   1.407       .  A
C753        H760   1.084       .  S
C754        C755   1.417       .  A
C755        C756   1.398       .  A
C755        C762   1.511       .  S
C756        C757   1.407       .  A
C756        H761   1.084       .  S
C757        C758   1.413       .  A
C758        C759   1.507       .  S
C759        H763   1.111       .  S
C759        H764   1.110       .  S
C759        H765   1.110       .  S
C762        H766   1.101       .  S
C762        H767   1.111       .  S
C762        H768   1.111       .  S
C769        C770   1.416       .  A
C769        C774   1.421   1_565  A
C769        H776   1.084       .  S
C770        C771   1.421       .  A
C771        C772   1.396   1_565  A
C771        C778   1.511       .  S
C772        C773   1.407       .  A
C772        H777   1.084       .  S
C773        C774   1.415       .  A
C774        C775   1.504       .  S
C775        H779   1.111       .  S
C775        H780   1.110       .  S
C775        H781   1.110       .  S
C778        H782   1.108       .  S
C778        H783   1.104       .  S
C778        H784   1.111   1_565  S
C785        C786   1.407       .  A
C785        C790   1.401       .  A
C785        H792   1.084       .  S
C786        C787   1.417       .  A
C787        C788   1.412       .  A
C787        C794   1.501       .  S
C788        C789   1.405       .  A
C788        H793   1.084       .  S
C789        C790   1.415       .  A
C790        C791   1.511       .  S
C791        H795   1.111       .  S
C791        H796   1.110       .  S
C791        H797   1.109       .  S
C794        H798   1.108       .  S
C794        H799   1.109       .  S
C794        H800   1.111       .  S
C801        C802   1.396       .  A
C801        C806   1.412       .  A
C801        H808   1.084       .  S
C802        C803   1.425       .  A
C803        C804   1.414       .  A
C803        C810   1.501       .  S
C804        C805   1.400       .  A
C804        H809   1.084       .  S
C805        C806   1.432       .  A
C806        C807   1.504       .  S
C807        H811   1.111       .  S
C807        H812   1.110       .  S
C807        H813   1.095       .  S
C810        H814   1.104       .  S
C810        H815   1.107       .  S
C810        H816   1.110       .  S
C817        C818   1.407       .  A
C817        C822   1.403       .  A
C817        H824   1.083       .  S
C818        C819   1.423       .  A
C819        C820   1.406       .  A
C819        C826   1.509       .  S
C820        C821   1.403       .  A
C820        H825   1.084       .  S
C821        C822   1.417       .  A
C822        C823   1.510       .  S
C823        H827   1.111       .  S
C823        H828   1.109       .  S
C823        H829   1.110       .  S
C826        H830   1.107       .  S
C826        H831   1.110       .  S
C826        H832   1.111       .  S
C833        C834   1.412       .  A
C833        C838   1.416       .  A
C833        H840   1.084       .  S
C834       C2762   1.503       .  S
C834        C835   1.413       .  A
C835        C836   1.414       .  A
C835       C3082   1.505       .  S
C836        C837   1.414       .  A
C836        H841   1.084       .  S
C837        C838   1.417       .  A
C838        C839   1.506       .  S
C839        H843   1.110       .  S
C839        H844   1.110       .  S
C839        H845   1.111       .  S
C842       C3075   1.506   1_554  S
C842        H846   1.111       .  S
C842        H847   1.110       .  S
C842        H848   1.111       .  S
C849        C850   1.405       .  A
C849        C854   1.406       .  A
C849        H856   1.084       .  S
C850        C851   1.391       .  A
C851        C852   1.384       .  A
C851        C858   1.505       .  S
C852        C853   1.417       .  A
C852        H857   1.084       .  S
C853        C854   1.412       .  A
C854       C3095   1.502       .  S
C855       C3094   1.506       .  S
C855        H859   1.111       .  S
C855        H860   1.109       .  S
C855        H861   1.106   1_556  S
C858        H862   1.110       .  S
C858        H863   1.111       .  S
C858        H864   1.110       .  S
C865        C866   1.385       .  A
C865        C870   1.391       .  A
C865        H872   1.085       .  S
C866        C867   1.412       .  A
C867        C868   1.401       .  A
C867        C874   1.503       .  S
C868        C869   1.398       .  A
C868        H873   1.084       .  S
C869        C870   1.429       .  A
C870        C871   1.509       .  S
C871        H875   1.111       .  S
C871        H876   1.107       .  S
C871        H877   1.107       .  S
C874        H878   1.111       .  S
C874        H879   1.101       .  S
C874        H880   1.110       .  S
C881        C882   1.417       .  A
C881        C886   1.412       .  A
C881        H888   1.083       .  S
C882        C883   1.409   1_565  A
C883        C884   1.411       .  A
C883        C890   1.506       .  S
C884        C885   1.411       .  A
C884        H889   1.077       .  S
C885        C886   1.404   1_545  A
C886        C887   1.504       .  S
C887        H891   1.111       .  S
C887        H892   1.110   1_565  S
C887        H893   1.110   1_565  S
C890        H894   1.109       .  S
C890        H895   1.110       .  S
C890        H896   1.110       .  S
C897        C898   1.410       .  A
C897        C902   1.399       .  A
C897        H904   1.083       .  S
C898        C899   1.414       .  A
C899        C900   1.407       .  A
C899        C906   1.508       .  S
C900        C901   1.410       .  A
C900        H905   1.085       .  S
C901        C902   1.407       .  A
C902        C903   1.507       .  S
C903        H907   1.110       .  S
C903        H908   1.111       .  S
C903        H909   1.108       .  S
C906        H910   1.110       .  S
C906        H911   1.109       .  S
C906        H912   1.111       .  S
C913        C914   1.409       .  A
C913        C918   1.400       .  A
C913        H920   1.084       .  S
C914        C915   1.418       .  A
C915        C916   1.405       .  A
C915       C3162   1.508       .  S
C916        C917   1.404       .  A
C916        H921   1.082       .  S
C917        C918   1.410       .  A
C918        C919   1.508       .  S
C919        H923   1.110       .  S
C919        H924   1.108       .  S
C919        H925   1.109       .  S
C922       C3155   1.509       .  S
C922        H926   1.109       .  S
C922        H927   1.111       .  S
C922        H928   1.111       .  S
C929        C930   1.403       .  A
C929        C934   1.400       .  A
C929        H936   1.081       .  S
C930        C931   1.419       .  A
C931        C932   1.402       .  A
C931        C938   1.504       .  S
C932        C933   1.400       .  A
C932        H937   1.084       .  S
C933        C934   1.414       .  A
C934        C935   1.508       .  S
C935        H939   1.111       .  S
C935        H940   1.110       .  S
C935        H941   1.107       .  S
C938        H942   1.109       .  S
C938        H943   1.108       .  S
C938        H944   1.111       .  S
C945        C946   1.400       .  A
C945        C950   1.403       .  A
C945        H952   1.085       .  S
C946        C947   1.408       .  A
C947        C948   1.400       .  A
C947        C954   1.504       .  S
C948        C949   1.409       .  A
C948        H953   1.084       .  S
C949        C950   1.419       .  A
C950        C951   1.508       .  S
C951        H955   1.111       .  S
C951        H956   1.109       .  S
C951        H957   1.111       .  S
C954        H958   1.106       .  S
C954        H959   1.110       .  S
C954       H3200   1.110       .  S
H960       C3194   1.111       .  S
C961        C966   1.411       .  A
C961       C3202   1.411       .  A
C961        H968   1.080       .  S
C962        C963   1.414       .  A
C962       C3201   1.406       .  A
C963        C964   1.414   1_554  A
C963        C970   1.507       .  S
C964       C3205   1.413       .  A
C964        H969   1.084       .  S
C965        C966   1.421       .  A
C965       C3204   1.419       .  A
C966        C967   1.507       .  S
C967        H971   1.109       .  S
C967        H972   1.104       .  S
C967        H973   1.110       .  S
C970        H974   1.110       .  S
C970        H975   1.109       .  S
C970        H976   1.111       .  S
C977        C978   1.408       .  A
C977        C982   1.409       .  A
C977        H984   1.082       .  S
C978        C979   1.418       .  A
C979        C980   1.402       .  A
C979        C986   1.510       .  S
C980        C981   1.404       .  A
C980        H985   1.084       .  S
C981        C982   1.414       .  A
C982        C983   1.507       .  S
C983        H987   1.111       .  S
C983        H988   1.111       .  S
C983        H989   1.110       .  S
C986        H990   1.111       .  S
C986        H991   1.109       .  S
C986        H992   1.111       .  S
C993        C994   1.406       .  A
C993        C998   1.400       .  A
C993       H1000   1.080       .  S
C994        C995   1.414       .  A
C995        C996   1.398       .  A
C995       C1002   1.509       .  S
C996        C997   1.407       .  A
C996       H1001   1.084       .  S
C997        C998   1.411       .  A
C998        C999   1.507       .  S
C999       H1003   1.111       .  S
C999       H1004   1.110       .  S
C999       H1005   1.109       .  S
C1002      H1006   1.107       .  S
C1002      H1007   1.109       .  S
C1002      H1008   1.111       .  S
C1009      C1010   1.399       .  A
C1009      C1014   1.401       .  A
C1009      H1016   1.084       .  S
C1010      C1011   1.409       .  A
C1011      C1012   1.399       .  A
C1011      C1018   1.508       .  S
C1012      C1013   1.410       .  A
C1012      H1017   1.084       .  S
C1013      C1014   1.421       .  A
C1014      C1015   1.509       .  S
C1015      H1019   1.110       .  S
C1015      H1020   1.105       .  S
C1015      H1021   1.110       .  S
C1018      H1022   1.110       .  S
C1018      H1023   1.107       .  S
C1018      H3264   1.110       .  S
H1024      C3258   1.110       .  S
C1025      C1026   1.411       .  A
C1025      C1030   1.411   1_545  A
C1025      H1032   1.084       .  S
C1026      C1027   1.424       .  A
C1027      C1028   1.415   1_545  A
C1027      C1034   1.506       .  S
C1028      C1029   1.407       .  A
C1028      H1033   1.084       .  S
C1029      C1030   1.418       .  A
C1030      C1031   1.509       .  S
C1031      H1035   1.111   1_565  S
C1031      H1036   1.109       .  S
C1031      H1037   1.110       .  S
C1034      H1038   1.109       .  S
C1034      H1039   1.106       .  S
C1034      H1040   1.111   1_655  S
C1041      C1042   1.396       .  A
C1041      C1046   1.399       .  A
C1041      H1048   1.085       .  S
C1042      C1043   1.408       .  A
C1043      C1044   1.401       .  A
C1043      C1050   1.507       .  S
C1044      C1045   1.407       .  A
C1044      H1049   1.084       .  S
C1045      C1046   1.423       .  A
C1046      C1047   1.509       .  S
C1047      H1051   1.111       .  S
C1047      H1052   1.109       .  S
C1047      H1053   1.108       .  S
C1050      H1054   1.110       .  S
C1050      H1055   1.110       .  S
C1050      H1056   1.111       .  S
C1057      C1058   1.405       .  A
C1057      C1062   1.402       .  A
C1057      H1064   1.084       .  S
C1058      C1059   1.412       .  A
C1059      C1060   1.402       .  A
C1059      C1066   1.508       .  S
C1060      C1061   1.404       .  A
C1060      H1065   1.083       .  S
C1061      C1062   1.406       .  A
C1062      C1063   1.501       .  S
C1063      H1067   1.110       .  S
C1063      H1068   1.110   1_655  S
C1063      H1069   1.109       .  S
C1066      H1070   1.110       .  S
C1066      H1071   1.109       .  S
C1066      H1072   1.111       .  S
C1073      C1074   1.408       .  A
C1073      C1078   1.415       .  A
C1073      H1080   1.083       .  S
C1074      C1075   1.415       .  A
C1075      C1076   1.414       .  A
C1075      C1082   1.507       .  S
C1076      C1077   1.414       .  A
C1076      H1081   1.083       .  S
C1077      C1078   1.423       .  A
C1078      C1079   1.506       .  S
C1079      H1083   1.111       .  S
C1079      H1084   1.109       .  S
C1079      H1085   1.108       .  S
C1082      H1086   1.109       .  S
C1082      H1087   1.111       .  S
C1082      H1088   1.111       .  S
C1089      C1090   1.410       .  A
C1089      C1094   1.403       .  A
C1089      H1096   1.084       .  S
C1090      C1091   1.421       .  A
C1091      C1092   1.399       .  A
C1091      C1098   1.509       .  S
C1092      C1093   1.398       .  A
C1092      H1097   1.085       .  S
C1093      C1094   1.408       .  A
C1094      C1095   1.508       .  S
C1095      H1099   1.111       .  S
C1095      H1100   1.110   1_655  S
C1095      H1101   1.108   1_655  S
C1098      H1102   1.110       .  S
C1098      H1103   1.106       .  S
C1098      H1104   1.111       .  S
C1105      C1106   1.402       .  A
C1105      C1110   1.410       .  A
C1105      H1112   1.084       .  S
C1106      C1107   1.418       .  A
C1107      C1108   1.410       .  A
C1107      C1114   1.505       .  S
C1108      C1109   1.402       .  A
C1108      H1113   1.084       .  S
C1109      C1110   1.419       .  A
C1110      C1111   1.504       .  S
C1111      H1115   1.111       .  S
C1111      H1116   1.103       .  S
C1111      H1117   1.110       .  S
C1114      H1118   1.110       .  S
C1114      H1119   1.110       .  S
C1114      H1120   1.110       .  S
C1121      C1122   1.410       .  A
C1121      C1126   1.406       .  A
C1121      H1128   1.081       .  S
C1122      C1123   1.395       .  A
C1123      C1124   1.390       .  A
C1123      C1130   1.507       .  S
C1124      C1125   1.416       .  A
C1124      H1129   1.082       .  S
C1125      C1126   1.407       .  A
C1126      C1127   1.504       .  S
C1127      H1131   1.111       .  S
C1127      H1132   1.110       .  S
C1127      H1133   1.110       .  S
C1130      H1134   1.110       .  S
C1130      H1135   1.110       .  S
C1130      H1136   1.111       .  S
C1137      C1138   1.415       .  A
C1137      C1142   1.383       .  A
C1137      H1144   1.082       .  S
C1138      C1139   1.406       .  A
C1139      C1140   1.407       .  A
C1139      C1146   1.504       .  S
C1140      C1141   1.413       .  A
C1140      H1145   1.085       .  S
C1141      C1142   1.390       .  A
C1142      C1143   1.505       .  S
C1143      H1147   1.111       .  S
C1143      H1148   1.110       .  S
C1143      H1149   1.109       .  S
C1146      H1150   1.110       .  S
C1146      H1151   1.110       .  S
C1146      H1152   1.111       .  S
C1153      C1154   1.408       .  A
C1153      C1158   1.396       .  A
C1153      H1160   1.080       .  S
C1154      C1155   1.410       .  A
C1155      C1156   1.408       .  A
C1155      C1162   1.505       .  S
C1156      C1157   1.411       .  A
C1156      H1161   1.084       .  S
C1157      C1158   1.408       .  A
C1158      C1159   1.509       .  S
C1159      H1163   1.111       .  S
C1159      H1164   1.110       .  S
C1159      H1165   1.110       .  S
C1162      H1166   1.109       .  S
C1162      H1167   1.111       .  S
C1162      H1168   1.111       .  S
C1169      C1174   1.417   1_556  A
C1169      C3410   1.421       .  A
C1169      H1176   1.084       .  S
C1170      C1171   1.419       .  A
C1170      C3409   1.420       .  A
C1171      C1172   1.405       .  A
C1171      C1178   1.508       .  S
C1172      C3413   1.407       .  A
C1172      H1177   1.077       .  S
C1173      C1174   1.410       .  A
C1173      C3412   1.407   1_554  A
C1174      C1175   1.505       .  S
C1175      H1179   1.111       .  S
C1175      H1180   1.109       .  S
C1175      H1181   1.111       .  S
C1178      H1182   1.110       .  S
C1178      H1183   1.104       .  S
C1178      H1184   1.105       .  S
C1185      C1186   1.406       .  A
C1185      C1190   1.415       .  A
C1185      H1192   1.082       .  S
C1186      C1187   1.418       .  A
C1187      C1188   1.412       .  A
C1187      C1194   1.507       .  S
C1188      C1189   1.405       .  A
C1188      H1193   1.085       .  S
C1189      C1190   1.415       .  A
C1190      C1191   1.505       .  S
C1191      H1195   1.111       .  S
C1191      H1196   1.109       .  S
C1191      H1197   1.110       .  S
C1194      H1198   1.111       .  S
C1194      H1199   1.110       .  S
C1194      H1200   1.110       .  S
C1201      C1202   1.421       .  A
C1201      C1206   1.409       .  A
C1201      H1208   1.084       .  S
C1202      C1203   1.400       .  A
C1203      C1204   1.395       .  A
C1203      C1210   1.509       .  S
C1204      C1205   1.419       .  A
C1204      H1209   1.080       .  S
C1205      C1206   1.402       .  A
C1206      C1207   1.504       .  S
C1207      H1211   1.111       .  S
C1207      H1212   1.110       .  S
C1207      H1213   1.110       .  S
C1210      H1214   1.110       .  S
C1210      H1215   1.110       .  S
C1210      H1216   1.111       .  S
C1217      C1218   1.407       .  A
C1217      C1222   1.398       .  A
C1217      H1224   1.084       .  S
C1218      C1219   1.405       .  A
C1219      C1220   1.401       .  A
C1219      C1226   1.507       .  S
C1220      C1221   1.411       .  A
C1220      H1225   1.085       .  S
C1221      C1222   1.405       .  A
C1222      C1223   1.505       .  S
C1223      H1227   1.111       .  S
C1223      H1228   1.110       .  S
C1223      H1229   1.110       .  S
C1226      H1230   1.110       .  S
C1226      H1231   1.111       .  S
C1226      H1232   1.111       .  S
C1233      C1234   1.408       .  A
C1233      C1238   1.398       .  A
C1233      H1240   1.084       .  S
C1234      C1235   1.414       .  A
C1235      C1236   1.401       .  A
C1235      C1242   1.507       .  S
C1236      C1237   1.403       .  A
C1236      H1241   1.085       .  S
C1237      C1238   1.403       .  A
C1238      C1239   1.509       .  S
C1239      H1243   1.111       .  S
C1239      H1244   1.111       .  S
C1239      H1245   1.110       .  S
C1242      H1246   1.110   1_655  S
C1242      H1247   1.109       .  S
C1242      H1248   1.110       .  S
C1249      C1250   1.398       .  A
C1249      C1254   1.404   1_455  A
C1249      H1256   1.085       .  S
C1250      C1251   1.410       .  A
C1251      C1252   1.406       .  A
C1251      C1258   1.506       .  S
C1252      C1253   1.411   1_455  A
C1252      H1257   1.084       .  S
C1253      C1254   1.426       .  A
C1254      C1255   1.510       .  S
C1255      H1259   1.110       .  S
C1255      H1260   1.110       .  S
C1255      H1261   1.104       .  S
C1258      H1262   1.108       .  S
C1258      H1263   1.110       .  S
C1258      H1264   1.111       .  S
C1265      C1266   1.408       .  A
C1265      C1270   1.410       .  A
C1265      H1272   1.085       .  S
C1266      C1267   1.417       .  A
C1267      C1268   1.415       .  A
C1267      C1274   1.506       .  S
C1268      C1269   1.409       .  A
C1268      H1273   1.084       .  S
C1269      C2520   1.495       .  S
C1269      C1270   1.417       .  A
C1270      C1271   1.505   1_554  S
C1271      H1275   1.110       .  S
C1271      H1276   1.110       .  S
C1271      H3517   1.106       .  S
C1274      H1278   1.107       .  S
C1274      H1279   1.110       .  S
C1274      H1280   1.111       .  S
H1277      C3511   1.107       .  S
C1281      C1282   1.405       .  A
C1281      C1286   1.405       .  A
C1281      H1288   1.082       .  S
C1282      C1283   1.417       .  A
C1283      C1284   1.405       .  A
C1283      C1290   1.509       .  S
C1284      C1285   1.406       .  A
C1284      H1289   1.084       .  S
C1285      C1286   1.417       .  A
C1286      C1287   1.508       .  S
C1287      H1291   1.111       .  S
C1287      H1292   1.110       .  S
C1287      H1293   1.111       .  S
C1290      H1294   1.109       .  S
C1290      H1295   1.111       .  S
C1290      H1296   1.111       .  S
C1297      C1298   1.405       .  A
C1297      C1302   1.411   1_545  A
C1297      H1304   1.084       .  S
C1298      C1299   1.412       .  A
C1299      C1300   1.414   1_545  A
C1299      C1306   1.505       .  S
C1300      C1301   1.415       .  A
C1300      H1305   1.083       .  S
C1301      C1302   1.424       .  A
C1302      C1303   1.508       .  S
C1303      H1307   1.111   1_565  S
C1303      H1308   1.106       .  S
C1303      H1309   1.110   1_565  S
C1306      H1310   1.111       .  S
C1306      H1311   1.109       .  S
C1306      H1312   1.111   1_545  S
C1313      C1314   1.414       .  A
C1313      C1318   1.406       .  A
C1313      H1320   1.084       .  S
C1314      C1315   1.408       .  A
C1315      C1316   1.402       .  A
C1315      C1322   1.506       .  S
C1316      C1317   1.407       .  A
C1316      H1321   1.084       .  S
C1317      C1318   1.405       .  A
C1318      C3559   1.505       .  S
C1319      C3558   1.505       .  S
C1319      H1323   1.111       .  S
C1319      H1324   1.110   1_655  S
C1319      H1325   1.110       .  S
C1322      H1326   1.108       .  S
C1322      H1327   1.107       .  S
C1322      H1328   1.110       .  S
C1329      C1330   1.398       .  A
C1329      C1334   1.405       .  A
C1329      H1336   1.085       .  S
C1330      C1331   1.410       .  A
C1331      C1332   1.404       .  A
C1331      C1338   1.505       .  S
C1332      C1333   1.406       .  A
C1332      H1337   1.084       .  S
C1333      C1334   1.425       .  A
C1334      C1335   1.511   1_455  S
C1335      H1339   1.111       .  S
C1335      H1340   1.108       .  S
C1335      H1341   1.104       .  S
C1338      H1342   1.105       .  S
C1338      H1343   1.110       .  S
C1338      H1344   1.111       .  S
C1345      C1346   1.410       .  A
C1345      C1350   1.404       .  A
C1345      H1352   1.084       .  S
C1346      C1347   1.416       .  A
C1347      C1348   1.398       .  A
C1347      C1354   1.505   1_554  S
C1348      C1349   1.397       .  A
C1348      H1353   1.085   1_554  S
C1349      C1350   1.406       .  A
C1350      C1351   1.506       .  S
C1351      H1355   1.111       .  S
C1351      H1356   1.111       .  S
C1351      H1357   1.110       .  S
C1354      H1358   1.108       .  S
C1354      H1359   1.104       .  S
C1354      H1360   1.111       .  S
C1361      C1362   1.414       .  A
C1361      C1366   1.394       .  A
C1361      H1368   1.080       .  S
C1362      C1363   1.403       .  A
C1363      C1364   1.397       .  A
C1363      C1370   1.506       .  S
C1364      C1365   1.411       .  A
C1364      H3609   1.085       .  S
C1365      C1366   1.395       .  A
C1366      C1367   1.507       .  S
C1367      H1371   1.111       .  S
C1367      H1372   1.111       .  S
C1367      H1373   1.110       .  S
H1369      C3604   1.085       .  S
C1370      H1374   1.111       .  S
C1370      H1375   1.106       .  S
C1370      H1376   1.110       .  S
C1377      C1378   1.411       .  A
C1377      C1382   1.402       .  A
C1377      H1384   1.082       .  S
C1378      C1379   1.408       .  A
C1379      C1380   1.405       .  A
C1379      C1386   1.507       .  S
C1380      C1381   1.411       .  A
C1380      H1385   1.081       .  S
C1381      C1382   1.404       .  A
C1382      C1383   1.507       .  S
C1383      H1387   1.111       .  S
C1383      H1388   1.110       .  S
C1383      H1389   1.110       .  S
C1386      H1390   1.110       .  S
C1386      H1391   1.110       .  S
C1386      H1392   1.111       .  S
C1393      C1394   1.407       .  A
C1393      C1398   1.410       .  A
C1393      H1400   1.084       .  S
C1394      C1395   1.423       .  A
C1395      C1396   1.411       .  A
C1395      C1402   1.505       .  S
C1396      C1397   1.401       .  A
C1396      H1401   1.084       .  S
C1397      C1398   1.414       .  A
C1398      C1399   1.506       .  S
C1399      H1403   1.111       .  S
C1399      H1404   1.110       .  S
C1399      H1405   1.107       .  S
C1402      H1406   1.110       .  S
C1402      H1407   1.108       .  S
C1402      H1408   1.111       .  S
C1409      C1410   1.397       .  A
C1409      C1414   1.399       .  A
C1409      H3656   1.084       .  S
C1410      C1411   1.403       .  A
C1411      C1412   1.401       .  A
C1411      C1418   1.505       .  S
C1412      C1413   1.413       .  A
C1412      H1417   1.083       .  S
C1413      C1414   1.421       .  A
C1414      C3655   1.508       .  S
C1415      C3654   1.507       .  S
C1415      H1419   1.111       .  S
C1415      H1420   1.110       .  S
C1415      H1421   1.107       .  S
H1416      C3649   1.085       .  S
C1418      H1422   1.110       .  S
C1418      H1423   1.107       .  S
C1418      H1424   1.111       .  S
C1425      C1426   1.407       .  A
C1425      C1430   1.410       .  A
C1425      H1432   1.085       .  S
C1426      C1427   1.413       .  A
C1427      C1428   1.415       .  A
C1427      C1434   1.505       .  S
C1428      C1429   1.408       .  A
C1428      H1433   1.084       .  S
C1429      C1430   1.413       .  A
C1430      C1431   1.504       .  S
C1431      H1435   1.111       .  S
C1431      H1436   1.110       .  S
C1431      H1437   1.108       .  S
C1434      H1438   1.110       .  S
C1434      H1439   1.108       .  S
C1434      H1440   1.111       .  S
C1441      C1442   1.409       .  A
C1441      C1446   1.397       .  A
C1441      H1448   1.082       .  S
C1442      C1443   1.405       .  A
C1443      C1444   1.403       .  A
C1443      C1450   1.507       .  S
C1444      C1445   1.413       .  A
C1444      H1449   1.083       .  S
C1445      C1446   1.411       .  A
C1446      C1447   1.510       .  S
C1447      H1451   1.111       .  S
C1447      H1452   1.110       .  S
C1447      H1453   1.109       .  S
C1450      H1454   1.110   1_554  S
C1450      H1455   1.109       .  S
C1450      H1456   1.111       .  S
C1457      C1458   1.400       .  A
C1457      C1462   1.402       .  A
C1457      H1464   1.083       .  S
C1458      C1459   1.407       .  A
C1459      C1460   1.404       .  A
C1459      C1466   1.501       .  S
C1460      C1461   1.410       .  A
C1460      H1465   1.084       .  S
C1461      C1462   1.423       .  A
C1462      C1463   1.512       .  S
C1463      H1467   1.111       .  S
C1463      H1468   1.110       .  S
C1463      H1469   1.108       .  S
C1466      H1470   1.103       .  S
C1466      H1471   1.110       .  S
C1466      H1472   1.111       .  S
C1473      C1474   1.397       .  A
C1473      C1478   1.410       .  A
C1473      H1480   1.084       .  S
C1474      C3715   1.435       .  A
C1475      C1476   1.415       .  A
C1475      C3714   1.432   1_554  A
C1475      C1482   1.508       .  S
C1476      C1477   1.399       .  A
C1476      H1481   1.084       .  S
C1477      C3718   1.432   1_554  A
C1478      C3717   1.426       .  A
C1478      C1479   1.500       .  S
C1479      H1483   1.111       .  S
C1479      H1484   1.105       .  S
C1479      H1485   1.104       .  S
C1482      H1486   1.097       .  S
C1482      H1487   1.110       .  S
C1482      H1488   1.111       .  S
C1489      C1490   1.406       .  A
C1489      C1494   1.416       .  A
C1489      H1496   1.084       .  S
C1490      C1491   1.423       .  A
C1491      C1492   1.412       .  A
C1491      C1498   1.507       .  S
C1492      C1493   1.404       .  A
C1492      H1497   1.085       .  S
C1493      C1494   1.423       .  A
C1494      C1495   1.508       .  S
C1495      H1499   1.111       .  S
C1495      H1500   1.110       .  S
C1495      H1501   1.108       .  S
C1498      H1502   1.109       .  S
C1498      H1503   1.110       .  S
C1498      H1504   1.110       .  S
C1505      C1506   1.419       .  A
C1505      C1510   1.394       .  A
C1505      H1512   1.083       .  S
C1506      C1507   1.411       .  A
C1507      C1508   1.411       .  A
C1507      C1514   1.502       .  S
C1508      C1509   1.411       .  A
C1508      H1513   1.084       .  S
C1509      C1510   1.399       .  A
C1510      C1511   1.509       .  S
C1511      H1515   1.111       .  S
C1511      H1516   1.110       .  S
C1511      H1517   1.110       .  S
C1514      H1518   1.110       .  S
C1514      H1520   1.110       .  S
C1514      H3759   1.110       .  S
H1519      C3754   1.109   1_554  S
C1521      C1522   1.393       .  A
C1521      C1526   1.399       .  A
C1521      H1528   1.086       .  S
C1522      C1523   1.409       .  A
C1523      C1524   1.404       .  A
C1523      C1530   1.504       .  S
C1524      C1525   1.406       .  A
C1524      H1529   1.084       .  S
C1525      C1526   1.429       .  A
C1526      C1527   1.509       .  S
C1527      H1531   1.110       .  S
C1527      H1532   1.108       .  S
C1527      H1533   1.105       .  S
C1530      H1534   1.106       .  S
C1530      H1535   1.110       .  S
C1530      H1536   1.111       .  S
C1537      C1538   1.409       .  A
C1537      C1542   1.406       .  A
C1537      H1544   1.083       .  S
C1538      C1539   1.413       .  A
C1539      C1540   1.401       .  A
C1539      C1546   1.504       .  S
C1540      C1541   1.406       .  A
C1540      H1545   1.084       .  S
C1541      C1542   1.413       .  A
C1542      C1543   1.507       .  S
C1543      H1547   1.111       .  S
C1543      H1548   1.110       .  S
C1543      H1549   1.111       .  S
C1546      H1550   1.108       .  S
C1546      H1551   1.111       .  S
C1546      H1552   1.111       .  S
C1553      C1554   1.406       .  A
C1553      C1558   1.402       .  A
C1553      H1560   1.083       .  S
C1554      C1555   1.411       .  A
C1555      C1556   1.406       .  A
C1555      C1562   1.506       .  S
C1556      C1557   1.405       .  A
C1556      H1561   1.085       .  S
C1557      C1558   1.406       .  A
C1558      C1559   1.502       .  S
C1559      H1563   1.111       .  S
C1559      H1564   1.109       .  S
C1559      H1565   1.106       .  S
C1562      H1566   1.110       .  S
C1562      H1567   1.110       .  S
C1562      H1568   1.111       .  S
C1569      C1570   1.408       .  A
C1569      C1574   1.419       .  A
C1569      H1576   1.084       .  S
C1570      C1571   1.417       .  A
C1571      C1572   1.415       .  A
C1571      C1578   1.506       .  S
C1572      C1573   1.408       .  A
C1572      H1577   1.084       .  S
C1573      C1574   1.416       .  A
C1574      C1575   1.502       .  S
C1575      H1579   1.111       .  S
C1575      H1580   1.106       .  S
C1575      H1581   1.110       .  S
C1578      H1582   1.109       .  S
C1578      H1583   1.110       .  S
C1578      H1584   1.111       .  S
C1585      C1586   1.399       .  A
C1585      C1590   1.400       .  A
C1585      H1592   1.086       .  S
C1586      C1587   1.405       .  A
C1587      C1588   1.399       .  A
C1587      C1594   1.506       .  S
C1588      C1589   1.410       .  A
C1588      H1593   1.083       .  S
C1589      C1590   1.425       .  A
C1590      C1591   1.512       .  S
C1591      H1595   1.111       .  S
C1591      H1596   1.108       .  S
C1591      H1597   1.111       .  S
C1594      H1598   1.110       .  S
C1594      H1599   1.108       .  S
C1594      H1600   1.111       .  S
C1601      C1602   1.411       .  A
C1601      C1606   1.408       .  A
C1601      H1608   1.083       .  S
C1602      C1603   1.427       .  A
C1603      C1604   1.400       .  A
C1603      C1610   1.512       .  S
C1604      C1605   1.397       .  A
C1604      H1609   1.085       .  S
C1605      C1606   1.409       .  A
C1606      C1607   1.505       .  S
C1607      H1611   1.111       .  S
C1607      H1612   1.108       .  S
C1607      H1613   1.110       .  S
C1610      H1614   1.108       .  S
C1610      H1615   1.111       .  S
C1610      H1616   1.111       .  S
C1617      C1618   1.416       .  A
C1617      C1622   1.418       .  A
C1617      H1624   1.084       .  S
C1618      C1619   1.422       .  A
C1619      C1620   1.413       .  A
C1619      C1626   1.506       .  S
C1620      C1621   1.408       .  A
C1620      H1625   1.082       .  S
C1621      C1622   1.414       .  A
C1622      C1623   1.505       .  S
C1623      H1627   1.111       .  S
C1623      H1628   1.111       .  S
C1623      H1629   1.109       .  S
C1626      H1630   1.107       .  S
C1626      H1631   1.110       .  S
C1626      H1632   1.111       .  S
C1633      C1634   1.406       .  A
C1633      C1638   1.416       .  A
C1633      H1640   1.082       .  S
C1634      C1635   1.415       .  A
C1635      C1636   1.406       .  A
C1635      C1642   1.507       .  S
C1636      C1637   1.403       .  A
C1636      H1641   1.082       .  S
C1637      C1638   1.415       .  A
C1638      C1639   1.505       .  S
C1639      H1643   1.111       .  S
C1639      H1644   1.110       .  S
C1639      H1645   1.110       .  S
C1642      H1646   1.109       .  S
C1642      H1647   1.111       .  S
C1642      H1648   1.110       .  S
C1649      C1650   1.406       .  A
C1649      C1654   1.397       .  A
C1649      H1656   1.084   1_455  S
C1650      C1651   1.416       .  A
C1651      C1652   1.408       .  A
C1651      C1658   1.506       .  S
C1652      C1653   1.406       .  A
C1652      H1657   1.085       .  S
C1653      C1654   1.408       .  A
C1654      C1655   1.506       .  S
C1655      H1659   1.110       .  S
C1655      H1660   1.109       .  S
C1655      H1661   1.109       .  S
C1658      H1662   1.110       .  S
C1658      H1663   1.109       .  S
C1658      H1664   1.111       .  S
C1665      C1666   1.405       .  A
C1665      C1670   1.408       .  A
C1665      H1672   1.085       .  S
C1666      C1667   1.406       .  A
C1667      C1668   1.399       .  A
C1667      C1674   1.507       .  S
C1668      C1669   1.409       .  A
C1668      H1673   1.083   1_655  S
C1669      C1670   1.419       .  A
C1670      C3911   1.506       .  S
C1671      C3910   1.506       .  S
C1671      H1675   1.111       .  S
C1671      H1676   1.110   1_556  S
C1671      H1677   1.110       .  S
C1674      H1678   1.109       .  S
C1674      H1679   1.108       .  S
C1674      H1680   1.110       .  S
C1681      C1682   1.405       .  A
C1681      C1686   1.415       .  A
C1681      H1688   1.083       .  S
C1682      C2388   1.490       .  S
C1682      C1683   1.417       .  A
C1683      C1684   1.408       .  A
C1683      C1690   1.507       .  S
C1684      C1685   1.404       .  A
C1684      H1689   1.085       .  S
C1685      C1686   1.416       .  A
C1686      C1687   1.506       .  S
C1687      H1691   1.111       .  S
C1687      H1692   1.110       .  S
C1687      H1693   1.110       .  S
C1690      H1694   1.109       .  S
C1690      H1695   1.111       .  S
C1690      H1696   1.110       .  S
C1697      C1698   1.401       .  A
C1697      C1702   1.403       .  A
C1697      H1704   1.084       .  S
C1698      C1699   1.426       .  A
C1699      C1700   1.405       .  A
C1699      C1706   1.507       .  S
C1700      C1701   1.394       .  A
C1700      H1705   1.084       .  S
C1701      C1702   1.412       .  A
C1702      C1703   1.499       .  S
C1703      H1707   1.110       .  S
C1703      H1708   1.109       .  S
C1703      H1709   1.107       .  S
C1706      H1710   1.105       .  S
C1706      H1711   1.108   1_455  S
C1706      H1712   1.111       .  S
C1713      C1714   1.396       .  A
C1713      C1718   1.402       .  A
C1713      H1720   1.085       .  S
C1714      C1715   1.411       .  A
C1715      C1716   1.404       .  A
C1715      C1722   1.504       .  S
C1716      C1717   1.405       .  A
C1716      H1721   1.084       .  S
C1717      C1718   1.426       .  A
C1718      C1719   1.509   1_655  S
C1719      H1723   1.111       .  S
C1719      H1724   1.110       .  S
C1719      H1725   1.106       .  S
C1722      H1726   1.105       .  S
C1722      H1727   1.110       .  S
C1722      H1728   1.111       .  S
C1729      C1730   1.403       .  A
C1729      C1734   1.399       .  A
C1729      H1736   1.084       .  S
C1730      C1731   1.423       .  A
C1731      C1732   1.405       .  A
C1731      C1738   1.508       .  S
C1732      C1733   1.400       .  A
C1732      H1737   1.085       .  S
C1733      C1734   1.414       .  A
C1734      C1735   1.506       .  S
C1735      H1739   1.111       .  S
C1735      H1740   1.109       .  S
C1735      H1741   1.107       .  S
C1738      H1742   1.110       .  S
C1738      H1743   1.109       .  S
C1738      H1744   1.111       .  S
C1745      C1746   1.413       .  A
C1745      C1750   1.412       .  A
C1745      H1752   1.084       .  S
C1746      C1747   1.423       .  A
C1747      C1748   1.412       .  A
C1747      C1754   1.506       .  S
C1748      C1749   1.406       .  A
C1748      H1753   1.084       .  S
C1749      C1750   1.415       .  A
C1750      C1751   1.507       .  S
C1751      H1755   1.111       .  S
C1751      H1756   1.110       .  S
C1751      H1757   1.109       .  S
C1754      H1758   1.107       .  S
C1754      H1759   1.108       .  S
C1754      H1760   1.111       .  S
C1761      C1762   1.402       .  A
C1761      C1766   1.402       .  A
C1761      H1768   1.085       .  S
C1762      C1763   1.410       .  A
C1763      C1764   1.409       .  A
C1763      C1770   1.506       .  S
C1764      C1765   1.412       .  A
C1764      H1769   1.084       .  S
C1765      C1766   1.419       .  A
C1766      C1767   1.508       .  S
C1767      H1771   1.111       .  S
C1767      H1772   1.108       .  S
C1767      H1773   1.110       .  S
C1770      H1774   1.110   1_455  S
C1770      H1775   1.110   1_455  S
C1770      H1776   1.111       .  S
C1777      C1778   1.407       .  A
C1777      C1782   1.402       .  A
C1777      H1784   1.084       .  S
C1778      C1779   1.426       .  A
C1779      C1780   1.405       .  A
C1779      C1786   1.506       .  S
C1780      C1781   1.395       .  A
C1780      H1785   1.084       .  S
C1781      C1782   1.410       .  A
C1782      C1783   1.506       .  S
C1783      H1787   1.111       .  S
C1783      H1788   1.110       .  S
C1783      H1789   1.102       .  S
C1786      H1790   1.110       .  S
C1786      H1791   1.103       .  S
C1786      H1792   1.111       .  S
C1793      C1794   1.409       .  A
C1793      C1798   1.417       .  A
C1793      H1800   1.084       .  S
C1794      C2613   1.492       .  S
C1794      C1795   1.416       .  A
C1795      C1796   1.407       .  A
C1795      C1802   1.505       .  S
C1796      C1797   1.405       .  A
C1796      H1801   1.085       .  S
C1797      C1798   1.413       .  A
C1798      C1799   1.507       .  S
C1799      H1803   1.111       .  S
C1799      H1804   1.110       .  S
C1799      H1805   1.109       .  S
C1802      H1807   1.111       .  S
C1802      H1808   1.110       .  S
C1802      H4046   1.107       .  S
H1806      C4042   1.107   1_554  S
C1809      C1810   1.403       .  A
C1809      C1814   1.405       .  A
C1809      H1816   1.084       .  S
C1810      C1811   1.413       .  A
C1811      C1812   1.408       .  A
C1811      C1818   1.508       .  S
C1812      C1813   1.408       .  A
C1812      H1817   1.084       .  S
C1813      C1814   1.419       .  A
C1814      C1815   1.509       .  S
C1815      H1819   1.111       .  S
C1815      H1820   1.109       .  S
C1815      H1821   1.111       .  S
C1818      H1822   1.109       .  S
C1818      H1823   1.111       .  S
C1818      H1824   1.111       .  S
C1825      C1826   1.406       .  A
C1825      C1830   1.410       .  A
C1825      H1832   1.085       .  S
C1826      C2921   1.488       .  S
C1826      C1827   1.414       .  A
C1827      C1828   1.414       .  A
C1827      C1834   1.503   1_554  S
C1828      C1829   1.406       .  A
C1828      H1833   1.084       .  S
C1829      C1830   1.415       .  A
C1830      C1831   1.505       .  S
C1831      H1835   1.111       .  S
C1831      H1836   1.110       .  S
C1831      H1837   1.109       .  S
C1834      H1838   1.110       .  S
C1834      H1840   1.111   1_556  S
C1834      H4079   1.107       .  S
H1839      C4074   1.109       .  S
C1841      C1842   1.411       .  A
C1841      C1846   1.405       .  A
C1841      H1848   1.083       .  S
C1842      C1843   1.424       .  A
C1843      C1844   1.405       .  A
C1843      C1850   1.509       .  S
C1844      C1845   1.399       .  A
C1844      H1849   1.084       .  S
C1845      C1846   1.407       .  A
C1846      C1847   1.507       .  S
C1847      H1851   1.111       .  S
C1847      H1852   1.110       .  S
C1847      H1853   1.110       .  S
C1850      H1854   1.108       .  S
C1850      H1855   1.110       .  S
C1850      H1856   1.110       .  S
C1857      C1858   1.407       .  A
C1857      C1862   1.413       .  A
C1857      H1864   1.083       .  S
C1858      C1859   1.413       .  A
C1859      C1860   1.418       .  A
C1859      C1866   1.505       .  S
C1860      C1861   1.416       .  A
C1860      H1865   1.083       .  S
C1861      C1862   1.423       .  A
C1862      C1863   1.507       .  S
C1863      H1867   1.111       .  S
C1863      H1868   1.110       .  S
C1863      H1869   1.107       .  S
C1866      H1870   1.110       .  S
C1866      H1871   1.110       .  S
C1866      H1872   1.111       .  S
C1873      C1874   1.406       .  A
C1873      C1878   1.410       .  A
C1873      H1880   1.084       .  S
C1874      C1875   1.416       .  A
C1875      C1876   1.400       .  A
C1875      C1882   1.510       .  S
C1876      C1877   1.405       .  A
C1876      H1881   1.084       .  S
C1877      C1878   1.416       .  A
C1878      C1879   1.507       .  S
C1879      H1883   1.111       .  S
C1879      H1884   1.110       .  S
C1879      H1885   1.111       .  S
C1882      H1886   1.110       .  S
C1882      H1887   1.111       .  S
C1882      H1888   1.111       .  S
C1889      C1890   1.400       .  A
C1889      C1894   1.403       .  A
C1889      H1896   1.085       .  S
C1890      C1891   1.403       .  A
C1891      C1892   1.402       .  A
C1891      C1898   1.506   1_554  S
C1892      C1893   1.411       .  A
C1892      H1897   1.082       .  S
C1893      C1894   1.418       .  A
C1894      C1895   1.506       .  S
C1895      H1899   1.111       .  S
C1895      H1900   1.106       .  S
C1895      H1901   1.109       .  S
C1898      H1902   1.111   1_556  S
C1898      H1903   1.110       .  S
C1898      H1904   1.111       .  S
C1905      C1906   1.404       .  A
C1905      C1910   1.411       .  A
C1905      H1912   1.085       .  S
C1906      C1907   1.417       .  A
C1907      C1908   1.414       .  A
C1907      C1914   1.506       .  S
C1908      C1909   1.405       .  A
C1908      H1913   1.084       .  S
C1909      C1910   1.417       .  A
C1910      C1911   1.506       .  S
C1911      H1915   1.111       .  S
C1911      H1916   1.110       .  S
C1911      H1917   1.107       .  S
C1914      H1918   1.110       .  S
C1914      H1919   1.109       .  S
C1914      H1920   1.111       .  S
C1921      C1922   1.410       .  A
C1921      C1926   1.404       .  A
C1921      H1928   1.083       .  S
C1922      C1923   1.427       .  A
C1923      C1924   1.399       .  A
C1923      C1930   1.511       .  S
C1924      C1925   1.396       .  A
C1924      H1929   1.086       .  S
C1925      C1926   1.407       .  A
C1926      C1927   1.506       .  S
C1927      H1931   1.111       .  S
C1927      H1932   1.110       .  S
C1927      H1933   1.109       .  S
C1930      H1934   1.107       .  S
C1930      H1935   1.110       .  S
C1930      H1936   1.111       .  S
C1937      C1938   1.412       .  A
C1937      C1942   1.410       .  A
C1937      H1944   1.084       .  S
C1938      C1939   1.426       .  A
C1939      C1940   1.395       .  A
C1939      C1946   1.512       .  S
C1940      C1941   1.394       .  A
C1940      H4185   1.084       .  S
C1941      C1942   1.409       .  A
C1942      C1943   1.505       .  S
C1943      H1947   1.111       .  S
C1943      H1948   1.109       .  S
C1943      H1949   1.110       .  S
H1945      C4180   1.085       .  S
C1946      H1950   1.110       .  S
C1946      H1951   1.105       .  S
C1946      H1952   1.109       .  S
C1953      C1954   1.411       .  A
C1953      C1958   1.405       .  A
C1953      H1960   1.084       .  S
C1954      C1955   1.425       .  A
C1955      C1956   1.402       .  A
C1955      C1962   1.509       .  S
C1956      C1957   1.396       .  A
C1956      H1961   1.085       .  S
C1957      C1958   1.408       .  A
C1958      C1959   1.507       .  S
C1959      H1963   1.111       .  S
C1959      H1964   1.110       .  S
C1959      H1965   1.110       .  S
C1962      H1966   1.106       .  S
C1962      H1967   1.110       .  S
C1962      H1968   1.111       .  S
C1969      C1970   1.404       .  A
C1969      C1974   1.401       .  A
C1969      H1976   1.084       .  S
C1970      C1971   1.421       .  A
C1971      C1972   1.404       .  A
C1971      C1978   1.509       .  S
C1972      C1973   1.400       .  A
C1972      H1977   1.084       .  S
C1973      C1974   1.415       .  A
C1974      C1975   1.509       .  S
C1975      H1979   1.111       .  S
C1975      H1980   1.109       .  S
C1975      H1981   1.110       .  S
C1978      H1982   1.109       .  S
C1978      H1983   1.111       .  S
C1978      H1984   1.111       .  S
C1985      C1986   1.404       .  A
C1985      C1990   1.410       .  A
C1985      H1992   1.085       .  S
C1986      C1987   1.417       .  A
C1987      C1988   1.410       .  A
C1987      C1994   1.507       .  S
C1988      C1989   1.403       .  A
C1988      H1993   1.085       .  S
C1989      C1990   1.417       .  A
C1990      C1991   1.507       .  S
C1991      H1995   1.110       .  S
C1991      H1996   1.110       .  S
C1991      H1997   1.111       .  S
C1994      H1998   1.110       .  S
C1994      H1999   1.111       .  S
C1994      H2000   1.110       .  S
C2001      C2002   1.397       .  A
C2001      C2006   1.401       .  A
C2001      H2008   1.086       .  S
C2002      C2003   1.410       .  A
C2003      C2004   1.402       .  A
C2003      C2010   1.507       .  S
C2004      C2005   1.407       .  A
C2004      H2009   1.084       .  S
C2005      C2006   1.426       .  A
C2006      C2007   1.510       .  S
C2007      H2011   1.111       .  S
C2007      H2012   1.107       .  S
C2007      H2013   1.110       .  S
C2010      H2014   1.110       .  S
C2010      H2015   1.111       .  S
C2010      H2016   1.110       .  S
C2017      C2018   1.408       .  A
C2017      C2022   1.403       .  A
C2017      H2024   1.085       .  S
C2018      C2019   1.406       .  A
C2019      C2020   1.402       .  A
C2019      C2026   1.507       .  S
C2020      C2021   1.409       .  A
C2020      H2025   1.084       .  S
C2021      C2022   1.412       .  A
C2022      C2023   1.508       .  S
C2023      H2027   1.111       .  S
C2023      H2028   1.109       .  S
C2023      H2029   1.111       .  S
C2026      H2030   1.110       .  S
C2026      H2031   1.111       .  S
C2026      H2032   1.111       .  S
C2033      C2038   1.417   1_556  A
C2033      C4274   1.413       .  A
C2033      H2040   1.084       .  S
C2034      C2035   1.424       .  A
C2034      C4273   1.411       .  A
C2035      C2036   1.414       .  A
C2035      C2042   1.506       .  S
C2036      C4277   1.406       .  A
C2036      H2041   1.084       .  S
C2037      C2038   1.416       .  A
C2037      C4276   1.407       .  A
C2038      C2039   1.506       .  S
C2039      H2043   1.111       .  S
C2039      H2044   1.110       .  S
C2039      H2045   1.109       .  S
C2042      H2046   1.106       .  S
C2042      H2047   1.110       .  S
C2042      H2048   1.111       .  S
C2049      C2050   1.398       .  A
C2049      C2054   1.400       .  A
C2049      H2056   1.085       .  S
C2050      C2051   1.403       .  A
C2051      C2052   1.400       .  A
C2051      C2058   1.507       .  S
C2052      C2053   1.410       .  A
C2052      H2057   1.084       .  S
C2053      C2054   1.419       .  A
C2054      C2055   1.508       .  S
C2055      H2059   1.111       .  S
C2055      H2060   1.110       .  S
C2055      H2061   1.107       .  S
C2058      H2062   1.110       .  S
C2058      H2063   1.111       .  S
C2058      H2064   1.111       .  S
C2065      C2066   1.408       .  A
C2065      C2070   1.403       .  A
C2065      H2072   1.083       .  S
C2066      C2067   1.422       .  A
C2067      C2068   1.399       .  A
C2067      C2074   1.502       .  S
C2068      C2069   1.396       .  A
C2068      H2073   1.085       .  S
C2069      C2070   1.410       .  A
C2070      C2071   1.506       .  S
C2071      H2075   1.111       .  S
C2071      H2076   1.108       .  S
C2071      H2077   1.109       .  S
C2074      H2078   1.109       .  S
C2074      H2079   1.109       .  S
C2074      H2080   1.111       .  S
C2081      C2082   1.394       .  A
C2081      C2086   1.401       .  A
C2081      H2088   1.086       .  S
C2082      C2083   1.410       .  A
C2083      C2084   1.404       .  A
C2083      C2090   1.506       .  S
C2084      C2085   1.407       .  A
C2084      H2089   1.084       .  S
C2085      C2086   1.428       .  A
C2086      C2087   1.509       .  S
C2087      H2091   1.111       .  S
C2087      H2092   1.106       .  S
C2087      H2093   1.110       .  S
C2090      H2094   1.110       .  S
C2090      H2095   1.107       .  S
C2090      H2096   1.111       .  S
C2097      C2098   1.395       .  A
C2097      C2102   1.403       .  A
C2097      H2104   1.084       .  S
C2098      C2099   1.410       .  A
C2099      C2100   1.400       .  A
C2099      C2106   1.502       .  S
C2100      C2101   1.405       .  A
C2100      H2105   1.084       .  S
C2101      C2102   1.426       .  A
C2102      C2103   1.508       .  S
C2103      H2107   1.109       .  S
C2103      H2108   1.110       .  S
C2103      H2109   1.105       .  S
C2106      H2111   1.110       .  S
C2106      H2112   1.110       .  S
C2106      H4350   1.107       .  S
H2110      C4346   1.110       .  S
C2113      C2114   1.405       .  A
C2113      C2118   1.412       .  A
C2113      H2120   1.084       .  S
C2114      C2115   1.414       .  A
C2115      C2116   1.410       .  A
C2115      C2122   1.504       .  S
C2116      C2117   1.405       .  A
C2116      H2121   1.084       .  S
C2117      C2833   1.484       .  S
C2117      C2118   1.414       .  A
C2118      C4359   1.506   1_554  S
C2119      C4358   1.507       .  S
C2119      H2123   1.111       .  S
C2119      H2124   1.110       .  S
C2119      H2125   1.110       .  S
C2122      H2126   1.110       .  S
C2122      H2127   1.108       .  S
C2122      H2128   1.111       .  S
C2129      C2130   1.400       .  A
C2129      C2134   1.403       .  A
C2129      H2136   1.085       .  S
C2130      C2131   1.403       .  A
C2131      C2132   1.398       .  A
C2131      C2138   1.499       .  S
C2132      C2133   1.410       .  A
C2132      H2137   1.083       .  S
C2133      C2134   1.420       .  A
C2134      C2135   1.508       .  S
C2135      H2139   1.111       .  S
C2135      H2140   1.110       .  S
C2135      H2141   1.108       .  S
C2138      H2142   1.106       .  S
C2138      H2143   1.110       .  S
C2138      H2144   1.111       .  S
C2145      C2146   1.406       .  A
C2145      C2150   1.398       .  A
C2145      H2152   1.081       .  S
C2146      C2147   1.420       .  A
C2147      C2148   1.405       .  A
C2147      C2154   1.502       .  S
C2148      C2149   1.399       .  A
C2148      H2153   1.084       .  S
C2149      C2150   1.413       .  A
C2150      C2151   1.509       .  S
C2151      H2155   1.111       .  S
C2151      H2156   1.109       .  S
C2151      H2157   1.110       .  S
C2154      H2158   1.111       .  S
C2154      H2159   1.109       .  S
C2154      H2160   1.111       .  S
C2161      C2162   1.408       .  A
C2161      C2166   1.411       .  A
C2161      H2168   1.084       .  S
C2162      C2163   1.414       .  A
C2163      C2164   1.416       .  A
C2163      C2170   1.504       .  S
C2164      C2165   1.408       .  A
C2164      H2169   1.084       .  S
C2165      C2657   1.490       .  S
C2165      C2166   1.413       .  A
C2166      C4407   1.507       .  S
C2167      C4406   1.502   1_554  S
C2167      H2171   1.111       .  S
C2167      H2172   1.110       .  S
C2167      H2173   1.108       .  S
C2170      H2174   1.110       .  S
C2170      H2175   1.106       .  S
C2170      H2176   1.111       .  S
C2177      C2178   1.398       .  A
C2177      C2182   1.403       .  A
C2177      H2184   1.086       .  S
C2178      C2179   1.406       .  A
C2179      C2180   1.403       .  A
C2179      C2186   1.506       .  S
C2180      C2181   1.411       .  A
C2180      H2185   1.083       .  S
C2181      C2182   1.426       .  A
C2182      C2183   1.509       .  S
C2183      H2187   1.111       .  S
C2183      H2188   1.107       .  S
C2183      H2189   1.109       .  S
C2186      H2190   1.110       .  S
C2186      H2191   1.110       .  S
C2186      H2192   1.111       .  S
C2193      C2194   1.409       .  A
C2193      C2198   1.405       .  A
C2193      H2200   1.085       .  S
C2194      C2195   1.399       .  A
C2195      C2196   1.389       .  A
C2195      C2202   1.508       .  S
C2196      C2197   1.409       .  A
C2196      H2201   1.084       .  S
C2197      C2198   1.407       .  A
C2198      C4439   1.505       .  S
C2199      C4438   1.507       .  S
C2199      H2203   1.110       .  S
C2199      H2204   1.108       .  S
C2199      H2205   1.109       .  S
C2202      H2206   1.110       .  S
C2202      H2207   1.109       .  S
C2202      H2208   1.111       .  S
C2209      C2210   1.406       .  A
C2209      C2214   1.409       .  A
C2209      H2216   1.083       .  S
C2210      C2211   1.412       .  A
C2211      C2212   1.414       .  A
C2211      C2218   1.505       .  S
C2212      C2213   1.414       .  A
C2212      H2217   1.084       .  S
C2213      C2214   1.422       .  A
C2214      C2215   1.507       .  S
C2215      H2219   1.111       .  S
C2215      H2220   1.110       .  S
C2215      H2221   1.106       .  S
C2218      H2222   1.109       .  S
C2218      H2223   1.110       .  S
C2218      H2224   1.111       .  S
C2225      C2226   1.405       .  A
C2225      C2230   1.399       .  A
C2225      H2232   1.084       .  S
C2226      C2227   1.423       .  A
C2227      C2228   1.405       .  A
C2227      C2234   1.504       .  S
C2228      C2229   1.397       .  A
C2228      H2233   1.085       .  S
C2229      C2230   1.410       .  A
C2230      C2231   1.504       .  S
C2231      H2235   1.111       .  S
C2231      H2236   1.109       .  S
C2231      H2237   1.110       .  S
C2234      H2238   1.110       .  S
C2234      H2239   1.103       .  S
C2234      H2240   1.111       .  S
O2241      C2256   1.258       .  A
O2241     Al2249   1.881       .  S
C2242      O2252   1.268       .  A
C2242      O2243   1.254       .  A
C2242      C4418   1.452       .  S
O2243     Al2245   1.880       .  S
O2244      C2246   1.263       .  A
O2244     Al2245   1.902       .  S
Al2245     O2253   1.911       .  S
Al2245     O2255   1.922       .  S
Al2245     O2254   1.787       .  S
C2246      O2259   1.258       .  A
C2246      C4466   1.483       .  S
O2247      C2257   1.253       .  A
O2247     Al2249   1.888       .  S
O2248      C2261   1.274       .  A
O2248     Al2258   1.940       .  S
Al2249     O2262   1.898       .  S
Al2249     O2259   1.901       .  S
Al2249     O2254   1.766       .  S
O2250      C2257   1.262       .  A
O2250     Al2258   1.922       .  S
O2251      C2260   1.267       .  A
O2251     Al2258   1.941       .  S
O2252     Al2258   1.929       .  S
O2253      C2260   1.270       .  A
O2254     Al2258   1.790       .  S
O2255      C2256   1.260       .  A
C2256      C4434   1.487       .  S
C2257      C4386   1.468       .  S
C2260      C4450   1.493       .  S
C2261      O2262   1.265       .  A
C2261      C4402   1.481       .  S
O2263      C2278   1.255       .  A
O2263     Al2271   1.878       .  S
C2264      O2274   1.270       .  A
C2264      O2265   1.258       .  A
C2264      C4322   1.462       .  S
O2265     Al2267   1.888       .  S
O2266      C2268   1.263       .  A
O2266     Al2267   1.911       .  S
Al2267     O2275   1.918       .  S
Al2267     O2277   1.925       .  S
Al2267     O2276   1.784       .  S
C2268      O2281   1.258       .  A
C2268      C4370   1.470       .  S
O2269      C2279   1.255       .  A
O2269     Al2271   1.887       .  S
O2270      C2283   1.272       .  A
O2270     Al2280   1.945       .  S
Al2271     O2284   1.896       .  S
Al2271     O2281   1.904       .  S
Al2271     O2276   1.771       .  S
O2272      C2279   1.265       .  A
O2272     Al2280   1.920       .  S
O2273      C2282   1.265       .  A
O2273     Al2280   1.925       .  S
O2274     Al2280   1.925       .  S
O2275      C2282   1.269       .  A
O2276     Al2280   1.784       .  S
O2277      C2278   1.263       .  A
C2278      C4341   1.491       .  S
C2279      C4306   1.487       .  S
C2282      C4453   1.504       .  S
C2283      O2284   1.261       .  A
C2283      C4354   1.482       .  S
O2285      C2300   1.266       .  A
O2285     Al2293   1.908       .  S
C2286      C4258   1.467       .  S
O2287     Al2289   1.941       .  S
O2288      C2290   1.260       .  A
O2288     Al2289   1.922       .  S
Al2289     O2297   1.928       .  S
Al2289     O2299   1.953       .  S
Al2289     O2298   1.790       .  S
C2290      O2303   1.251       .  A
C2290      C4210   1.475       .  S
O2291      C2301   1.257       .  A
O2291     Al2293   1.905       .  S
O2292      C2305   1.265       .  A
O2292     Al2302   1.907       .  S
Al2293     O2306   1.872       .  S
Al2293     O2303   1.879       .  S
Al2293     O2298   1.781       .  S
O2294      C2301   1.256       .  A
O2294     Al2302   1.886       .  S
O2295      C2304   1.270       .  A
O2295     Al2302   1.925       .  S
O2296     Al2302   1.867       .  S
O2297      C2304   1.263       .  A
O2298     Al2302   1.782       .  S
O2299      C2300   1.278       .  A
C2300      C4229   1.487       .  S
C2301      C4293   1.474       .  S
C2304      C4274   1.516       .  S
C2305      O2306   1.254       .  A
C2305      C4245   1.487       .  S
O2307      C2322   1.276       .  A
O2307     Al2315   1.938       .  S
C2308      C4181   1.459       .  S
O2309     Al2311   1.941       .  S
O2310      C2312   1.249       .  A
O2310     Al2311   1.909       .  S
Al2311     O2319   1.890       .  S
Al2311     O2321   1.952       .  S
Al2311     O2320   1.795       .  S
C2312      O2325   1.242       .  A
C2312      C4130   1.457       .  S
O2313      C2323   1.253       .  A
O2313     Al2315   1.889       .  S
O2314      C2327   1.265       .  A
O2314     Al2324   1.894       .  S
Al2315     O2328   1.858       .  S
Al2315     O2325   1.873       .  S
Al2315     O2320   1.775       .  S
O2316      C2323   1.258       .  A
O2316     Al2324   1.902       .  S
O2317      C2326   1.260       .  A
O2317     Al2324   1.916       .  S
O2318     Al2324   1.882       .  S
O2319      C2326   1.247       .  A
O2320     Al2324   1.783       .  S
O2321      C2322   1.285       .  A
C2322      C4146   1.494       .  S
C2323      C4197   1.479       .  S
C2326      C4277   1.498       .  S
C2327      O2328   1.253       .  A
C2327      C4162   1.463       .  S
O2329      C2344   1.255       .  A
O2329     Al2337   1.873       .  S
C2330      O2340   1.274       .  A
C2330      O2331   1.254       .  A
C2330      C4242   1.466       .  S
O2331     Al2333   1.879       .  S
O2332      C2334   1.264       .  A
O2332     Al2333   1.914       .  S
Al2333     O2341   1.941       .  S
Al2333     O2343   1.912       .  S
Al2333     O2342   1.800       .  S
C2334      O2347   1.261       .  A
C2334      C4114   1.492       .  S
O2335      C2345   1.255       .  A
O2335     Al2337   1.900       .  S
O2336      C2349   1.279       .  A
O2336     Al2346   1.955       .  S
Al2337     O2350   1.907       .  S
Al2337     O2347   1.894       .  S
Al2337     O2342   1.779       .  S
O2338      C2345   1.252       .  A
O2338     Al2346   1.895       .  S
O2339      C2348   1.260       .  A
O2339     Al2346   1.915       .  S
O2340     Al2346   1.953       .  S
O2341      C2348   1.276       .  A
O2342     Al2346   1.784       .  S
O2343      C2344   1.259       .  A
C2344      C4261   1.477       .  S
C2345      C4082   1.491       .  S
C2348      C4101   1.512       .  S
C2349      O2350   1.266       .  A
C2349      C4069   1.493       .  S
O2351      C2366   1.245       .  A
O2351     Al2359   1.861       .  S
C2352      O2362   1.277       .  A
C2352      O2353   1.245       .  A
C2352      C4165   1.481       .  S
O2353     Al2355   1.843       .  S
O2354      C2356   1.261       .  A
O2354     Al2355   1.901       .  S
Al2355     O2363   1.951       .  S
Al2355     O2365   1.931       .  S
Al2355     O2364   1.809       .  S
C2356      O2369   1.265       .  A
C2356      C4053   1.500       .  S
O2357      C2367   1.251       .  A
O2357     Al2359   1.889       .  S
O2358      C2371   1.280       .  A
O2358     Al2368   1.964       .  S
Al2359     O2372   1.884       .  S
Al2359     O2369   1.921       .  S
Al2359     O2364   1.778       .  S
O2360      C2367   1.255       .  A
O2360     Al2368   1.901       .  S
O2361      C2370   1.262       .  A
O2361     Al2368   1.926       .  S
O2362     Al2368   1.957       .  S
O2363      C2370   1.281       .  A
O2364     Al2368   1.780       .  S
O2365      C2366   1.259       .  A
C2366      C4178   1.495       .  S
C2367      C4021   1.474       .  S
C2370      C4098   1.516       .  S
C2371      O2372   1.262       .  A
C2371      C4037   1.489       .  S
C2374      O2384   1.261       .  A
C2374      O2375   1.274       .  A
C2374      C3954   1.461       .  S
O2375     Al2377   1.933       .  S
O2376      C2378   1.257       .  A
O2376     Al2377   1.930       .  S
Al2377     O2385   1.927       .  S
Al2377     O2387   1.943       .  S
Al2377     O2386   1.795       .  S
C2378      O2391   1.253       .  A
C2378      C3970   1.478       .  S
O2379      C2389   1.256       .  A
O2379     Al2381   1.893       .  S
O2380     Al2390   1.916       .  S
Al2381     O2391   1.899       .  S
Al2381     O2386   1.778       .  S
O2382      C2389   1.255       .  A
O2382     Al2390   1.880       .  S
O2383      C2392   1.266       .  A
O2383     Al2390   1.920       .  S
O2384     Al2390   1.888       .  S
O2385      C2392   1.262       .  A
O2386     Al2390   1.791       .  S
O2387      C2388   1.278   1_556  A
C2389      C4002   1.464   1_655  S
C2392      C3986   1.515       .  S
C2393      O2394   1.258       .  A
C2393      C3938   1.485       .  S
O2395      C2410   1.263       .  A
O2395     Al2403   1.903       .  S
C2396      O2406   1.259       .  A
C2396      O2397   1.269       .  A
C2396      C3906   1.454       .  S
O2397     Al2399   1.922       .  S
O2398      C2400   1.262       .  A
O2398     Al2399   1.928       .  S
Al2399     O2407   1.917       .  S
Al2399     O2409   1.944       .  S
Al2399     O2408   1.795       .  S
C2400      O2413   1.257       .  A
C2400      C4469   1.472       .  S
O2401      C2411   1.257       .  A
O2401     Al2403   1.905       .  S
O2402      C2415   1.266       .  A
O2402     Al2412   1.933       .  S
Al2403     O2416   1.870       .  S
Al2403     O2413   1.885       .  S
Al2403     O2408   1.775       .  S
O2404      C2411   1.259       .  A
O2404     Al2412   1.909       .  S
O2405      C2414   1.270       .  A
O2405     Al2412   1.923       .  S
O2406     Al2412   1.866       .  S
O2407      C2414   1.261       .  A
O2408     Al2412   1.788       .  S
O2409      C2410   1.272       .  A
C2410      C3874   1.485       .  S
C2411      C4018   1.490   1_655  S
C2414      C3989   1.509       .  S
C2415      O2416   1.258       .  A
C2415      C3890   1.488   1_655  S
O2417      C2432   1.264       .  A
O2417     Al2425   1.903       .  S
C2418      O2428   1.256       .  A
C2418      O2419   1.273       .  A
C2418      C3845   1.459       .  S
O2419     Al2421   1.944       .  S
O2420      C2422   1.260       .  A
O2420     Al2421   1.925       .  S
Al2421     O2429   1.954       .  S
Al2421     O2431   1.971       .  S
Al2421     O2430   1.795       .  S
C2422      O2435   1.254       .  A
C2422      C4373   1.475       .  S
O2423      C2433   1.256       .  A
O2423     Al2425   1.901       .  S
O2424      C2437   1.265       .  A
O2424     Al2434   1.920       .  S
Al2425     O2438   1.876       .  S
Al2425     O2435   1.884       .  S
Al2425     O2430   1.777       .  S
O2426      C2433   1.256       .  A
O2426     Al2434   1.890       .  S
O2427      C2436   1.270       .  A
O2427     Al2434   1.915       .  S
O2428     Al2434   1.870       .  S
O2429      C2436   1.266       .  A
O2430     Al2434   1.789       .  S
O2431      C2432   1.283       .  A
C2432      C3810   1.496       .  S
C2433      C4085   1.465       .  S
C2436      C3861   1.517       .  S
C2437      O2438   1.255       .  A
C2437      C3829   1.495       .  S
O2439      C2454   1.266       .  A
C2440      O2450   1.252       .  A
C2440      O2441   1.268       .  A
C2440      C3762   1.462       .  S
O2441     Al2443   1.947       .  S
O2442      C2444   1.253       .  A
O2442     Al2443   1.909       .  S
Al2443     O2451   1.924       .  S
Al2443     O2453   1.997       .  S
Al2443     O2452   1.797       .  S
C2444      O2457   1.249       .  A
C2444      C3778   1.476       .  S
O2445      C2455   1.269       .  A
O2445     Al2447   1.927       .  S
O2446     Al2456   1.931       .  S
Al2447     O2457   1.884       .  S
Al2447     O2452   1.789       .  S
O2448      C2455   1.263       .  A
O2448     Al2456   1.900       .  S
O2449      C2458   1.262       .  A
O2449     Al2456   1.915       .  S
O2450     Al2456   1.833       .  S
O2451      C2458   1.267       .  A
O2452     Al2456   1.793       .  S
C2454      C3733   1.481       .  S
C2455      C3797   1.476       .  S
C2458      C3858   1.524       .  S
C2459      O2460   1.260       .  A
C2459      C3746   1.488       .  S
O2461      C2476   1.245       .  A
O2461     Al2469   1.861       .  S
C2462      C3682   1.465       .  S
O2463     Al2465   1.857       .  S
O2464      C2466   1.265       .  A
O2464     Al2465   1.910       .  S
Al2465     O2473   1.952       .  S
Al2465     O2475   1.936       .  S
Al2465     O2474   1.801       .  S
C2466      O2479   1.262       .  A
C2466      C3973   1.499       .  S
O2467      C2477   1.253       .  A
O2467     Al2469   1.892       .  S
O2468      C2481   1.279       .  A
O2468     Al2478   1.963       .  S
Al2469     O2482   1.885       .  S
Al2469     O2479   1.916       .  S
Al2469     O2474   1.773       .  S
O2470      C2477   1.256       .  A
O2470     Al2478   1.903       .  S
O2471      C2480   1.262       .  A
O2471     Al2478   1.918       .  S
O2472     Al2478   1.955       .  S
O2473      C2480   1.280       .  A
O2474     Al2478   1.779       .  S
O2475      C2476   1.262       .  A
C2476      C3701   1.492       .  S
C2477      C3650   1.466       .  S
C2480      C3714   1.512       .  S
C2481      O2482   1.261       .  A
C2481      C3666   1.486       .  S
O2483      C2498   1.263       .  A
O2483     Al2491   1.895       .  S
C2484      C3605   1.470       .  S
O2485     Al2487   1.819       .  S
O2486      C2488   1.267       .  A
O2486     Al2487   1.929       .  S
Al2487     O2495   1.956       .  S
Al2487     O2497   1.897       .  S
Al2487     O2496   1.778       .  S
C2488      O2501   1.263       .  A
C2488      C3781   1.473       .  S
O2489      C2499   1.261       .  A
O2489     Al2491   1.932       .  S
O2490      C2503   1.283       .  A
O2490     Al2500   1.998       .  S
Al2491     O2504   1.884       .  S
Al2491     O2501   1.898       .  S
Al2491     O2496   1.782       .  S
O2492      C2499   1.252       .  A
O2492     Al2500   1.877       .  S
O2493      C2502   1.267       .  A
O2493     Al2500   1.918       .  S
O2494     Al2500   1.951       .  S
O2495      C2502   1.271       .  A
O2496     Al2500   1.777       .  S
O2497      C2498   1.263       .  A
C2498      C3618   1.461       .  S
C2499      C3586   1.484       .  S
C2502      C3717   1.505       .  S
C2503      O2504   1.262       .  A
C2503      C3637   1.512       .  S
C2506      O2516   1.257       .  A
C2506      O2507   1.269       .  A
C2506      C3570   1.468       .  S
O2507     Al2509   1.936       .  S
O2508      C2510   1.262       .  A
O2508     Al2509   1.923       .  S
Al2509     O2517   1.936       .  S
Al2509     O2519   1.951       .  S
Al2509     O2518   1.792       .  S
C2510      O2523   1.254       .  A
C2510      C3522   1.489       .  S
O2511      C2521   1.260       .  A
O2511     Al2513   1.899       .  S
O2512     Al2522   1.919       .  S
Al2513     O2523   1.883       .  S
Al2513     O2518   1.781       .  S
O2514      C2521   1.261       .  A
O2514     Al2522   1.903       .  S
O2515      C2524   1.269       .  A
O2515     Al2522   1.913       .  S
O2516     Al2522   1.889       .  S
O2517      C2524   1.266       .  A
O2518     Al2522   1.793       .  S
O2519      C2520   1.276   1_556  A
C2521      C3653   1.492   1_455  S
C2524      C3538   1.503       .  S
C2525      O2526   1.258       .  A
C2525      C3557   1.468   1_455  S
O2527      C2542   1.270       .  A
O2527     Al2535   1.923       .  S
C2528      O2538   1.260       .  A
C2528      O2529   1.274       .  A
C2528      C3490   1.461       .  S
O2529     Al2531   1.937       .  S
O2530      C2532   1.258       .  A
O2530     Al2531   1.917       .  S
Al2531     O2539   1.934       .  S
Al2531     O2541   1.953       .  S
Al2531     O2540   1.788       .  S
C2532      O2545   1.258       .  A
C2532      C4050   1.477       .  S
O2533      C2543   1.260       .  A
O2533     Al2535   1.912       .  S
O2534      C2547   1.261       .  A
O2534     Al2544   1.906       .  S
Al2535     O2548   1.882       .  S
Al2535     O2545   1.911       .  S
Al2535     O2540   1.779       .  S
O2536      C2543   1.252       .  A
O2536     Al2544   1.873       .  S
O2537      C2546   1.263       .  A
O2537     Al2544   1.910       .  S
O2538     Al2544   1.888       .  S
O2539      C2546   1.263       .  A
O2540     Al2544   1.781       .  S
O2541      C2542   1.281       .  A
C2542      C4149   1.492       .  S
C2543      C4389   1.490   1_455  S
C2546      C3541   1.515       .  S
C2547      O2548   1.261       .  A
C2547      C3474   1.486       .  S
O2549      C2564   1.253       .  A
O2549     Al2557   1.867       .  S
C2550      C3442   1.462       .  S
O2551     Al2553   1.861       .  S
O2552      C2554   1.261       .  A
O2552     Al2553   1.907       .  S
Al2553     O2561   1.919       .  S
Al2553     O2563   1.905       .  S
Al2553     O2562   1.781       .  S
C2554      O2567   1.259       .  A
C2554      C3525   1.480       .  S
O2555      C2565   1.252       .  A
O2555     Al2557   1.871       .  S
O2556      C2569   1.272       .  A
O2556     Al2566   1.944       .  S
Al2557     O2570   1.904       .  S
Al2557     O2567   1.900       .  S
Al2557     O2562   1.775       .  S
O2558      C2565   1.264       .  A
O2558     Al2566   1.938       .  S
O2559      C2568   1.261       .  A
O2559     Al2566   1.913       .  S
O2560     Al2566   1.947       .  S
O2561      C2568   1.270       .  A
O2562     Al2566   1.789       .  S
O2563      C2564   1.260       .  A
C2564      C3458   1.478       .  S
C2565      C4005   1.489       .  S
C2568      C3410   1.510       .  S
C2569      O2570   1.262       .  A
C2569      C3426   1.481       .  S
O2571      C2586   1.262       .  A
O2571     Al2579   1.880       .  S
C2572      C3365   1.482   1_554  S
O2573     Al2575   1.850       .  S
O2574      C2576   1.260       .  A
O2574     Al2575   1.911       .  S
Al2575     O2583   1.936       .  S
Al2575     O2585   1.892       .  S
Al2575     O2584   1.764       .  S
C2576      O2589   1.265       .  A
C2576      C3394   1.488       .  S
O2577      C2587   1.259       .  A
O2577     Al2579   1.901       .  S
O2578      C2591   1.280       .  A
O2578     Al2588   1.994       .  S
Al2579     O2592   1.867       .  S
Al2579     O2589   1.926       .  S
Al2579     O2584   1.772       .  S
O2580      C2587   1.262       .  A
O2580     Al2588   1.906       .  S
O2581      C2590   1.270       .  A
O2581     Al2588   1.932       .  S
O2582     Al2588   1.982       .  S
O2583      C2590   1.269       .  A
O2584     Al2588   1.792       .  S
O2585      C2586   1.264       .  A
C2586      C3378   1.467       .  S
C2587      C3794   1.482       .  S
C2590      C3413   1.514       .  S
C2591      O2592   1.257       .  A
C2591      C3346   1.494       .  S
O2593      C2608   1.259       .  A
C2594      O2604   1.270       .  A
C2594      O2595   1.255       .  A
C2594      C3893   1.460       .  S
O2595     Al2597   1.877       .  S
O2596      C2598   1.260   1_455  A
O2596     Al2597   1.888       .  S
Al2597     O2605   1.910       .  S
Al2597     O2607   1.907       .  S
Al2597     O2606   1.800       .  S
C2598      O2611   1.258   1_655  A
C2598      C3333   1.466       .  S
O2599      C2609   1.257       .  A
O2599     Al2601   1.903       .  S
O2600      C2613   1.276       .  A
O2600     Al2610   1.949       .  S
Al2601     O2611   1.899       .  S
Al2601     O2606   1.784       .  S
O2602      C2609   1.257       .  A
O2602     Al2610   1.909       .  S
O2603      C2612   1.263       .  A
O2603     Al2610   1.929       .  S
O2604     Al2610   1.930       .  S
O2605      C2612   1.267       .  A
O2606     Al2610   1.793       .  S
C2608      C3909   1.479   1_455  S
C2609      C4194   1.496       .  S
C2612      C3314   1.496       .  S
O2615      C2630   1.255       .  A
O2615     Al2623   1.874       .  S
C2616      O2626   1.272       .  A
C2616      O2617   1.257       .  A
C2616      C3941   1.455       .  S
O2617     Al2619   1.883       .  S
O2618      C2620   1.258   1_455  A
O2618     Al2619   1.892       .  S
Al2619     O2627   1.928       .  S
Al2619     O2629   1.924       .  S
Al2619     O2628   1.787       .  S
C2620      O2633   1.263   1_655  A
C2620      C3301   1.490       .  S
O2621      C2631   1.255       .  A
O2621     Al2623   1.897       .  S
O2622      C2635   1.275       .  A
O2622     Al2632   1.935       .  S
Al2623     O2636   1.920       .  S
Al2623     O2633   1.918       .  S
Al2623     O2628   1.772       .  S
O2624      C2631   1.257       .  A
O2624     Al2632   1.909       .  S
O2625      C2634   1.263       .  A
O2625     Al2632   1.914       .  S
O2626     Al2632   1.935       .  S
O2627      C2634   1.272       .  A
O2628     Al2632   1.785       .  S
O2629      C2630   1.263       .  A
C2630      C3957   1.490   1_455  S
C2631      C3282   1.485       .  S
C2634      C3317   1.510       .  S
C2635      O2636   1.270       .  A
C2635      C3429   1.483       .  S
O2637      C2652   1.258       .  A
C2638      O2648   1.269       .  A
C2638      O2639   1.258       .  A
C2638      C3477   1.462       .  S
O2639     Al2641   1.889       .  S
O2640      C2642   1.256       .  A
O2640     Al2641   1.881       .  S
Al2641     O2649   1.909       .  S
Al2641     O2651   1.929       .  S
Al2641     O2650   1.790       .  S
C2642      O2655   1.260       .  A
C2642      C4133   1.481   1_655  S
O2643      C2653   1.255       .  A
O2643     Al2645   1.890       .  S
O2644      C2657   1.276       .  A
O2644     Al2654   1.953       .  S
Al2645     O2655   1.899       .  S
Al2645     O2650   1.773       .  S
O2646      C2653   1.264       .  A
O2646     Al2654   1.933       .  S
O2647      C2656   1.267       .  A
O2647     Al2654   1.949       .  S
O2648     Al2654   1.922       .  S
O2649      C2656   1.269       .  A
O2650     Al2654   1.785       .  S
C2652      C3493   1.491   1_655  S
C2653      C3253   1.490       .  S
C2656      C3269   1.507       .  S
O2659      C2674   1.244       .  A
O2659     Al2667   1.858       .  S
C2660      O2670   1.264       .  A
C2660      O2661   1.254       .  A
C2660      C3554   1.459       .  S
O2661     Al2663   1.852       .  S
O2662      C2664   1.263       .  A
O2662     Al2663   1.898       .  S
Al2663     O2671   1.901       .  S
Al2663     O2673   1.932       .  S
Al2663     O2672   1.799       .  S
C2664      O2677   1.265       .  A
C2664      C3234   1.470   1_655  S
O2665      C2675   1.243       .  A
O2665     Al2667   1.864       .  S
O2666      C2679   1.281       .  A
O2666     Al2676   1.969       .  S
Al2667     O2680   1.893       .  S
Al2667     O2677   1.904       .  S
Al2667     O2672   1.795       .  S
O2668      C2675   1.250       .  A
O2668     Al2676   1.907       .  S
O2669      C2678   1.263       .  A
O2669     Al2676   1.911       .  S
O2670     Al2676   1.923       .  S
O2671      C2678   1.260       .  A
O2672     Al2676   1.806       .  S
O2673      C2674   1.264       .  A
C2674      C3573   1.498   1_655  S
C2675      C3218   1.471       .  S
C2678      C3266   1.519       .  S
C2679      O2680   1.268       .  A
C2679      C3669   1.497       .  S
O2681      C2696   1.261       .  A
O2681     Al2689   1.877       .  S
C2682      C4437   1.462   1_554  S
O2683     Al2685   1.950       .  S
O2684      C2686   1.258       .  A
O2684     Al2685   1.914       .  S
Al2685     O2693   1.922       .  S
Al2685     O2695   1.976       .  S
Al2685     O2694   1.800       .  S
C2686      O2699   1.248       .  A
C2686      C3330   1.466       .  S
O2687      C2697   1.267       .  A
O2687     Al2689   1.931       .  S
O2688      C2701   1.270       .  A
O2688     Al2698   1.920       .  S
Al2689     O2702   1.860       .  S
Al2689     O2699   1.861       .  S
Al2689     O2694   1.780       .  S
O2690      C2697   1.260       .  A
O2690     Al2698   1.907       .  S
O2691      C2700   1.262       .  A
O2691     Al2698   1.917       .  S
O2692     Al2698   1.843       .  S
O2693      C2700   1.265       .  A
O2694     Al2698   1.781       .  S
O2695      C2696   1.278       .  A
C2696      C3877   1.486       .  S
C2697      C3250   1.479       .  S
C2700      C3202   1.521       .  S
C2701      O2702   1.253       .  A
C2701      C4421   1.475       .  S
O2703      C2718   1.268       .  A
O2703     Al2711   1.922       .  S
C2704      C4338   1.460       .  S
O2705     Al2707   1.933       .  S
O2706      C2708   1.258       .  A
O2706     Al2707   1.913       .  S
Al2707     O2715   1.924       .  S
Al2707     O2717   1.959       .  S
Al2707     O2716   1.793       .  S
C2708      O2721   1.250       .  A
C2708      C3170   1.479       .  S
O2709      C2719   1.255       .  A
O2709     Al2711   1.897       .  S
O2710      C2723   1.264       .  A
O2710     Al2720   1.913       .  S
Al2711     O2724   1.874       .  S
Al2711     O2721   1.877       .  S
Al2711     O2716   1.775       .  S
O2712      C2719   1.255       .  A
O2712     Al2720   1.890       .  S
O2713      C2722   1.267       .  A
O2713     Al2720   1.916       .  S
O2714     Al2720   1.882       .  S
O2715      C2722   1.262       .  A
O2716     Al2720   1.792       .  S
O2717      C2718   1.280       .  A
C2718      C3813   1.499       .  S
C2719      C3186   1.468       .  S
C2722      C3205   1.514       .  S
C2723      O2724   1.257       .  A
C2723      C4325   1.479       .  S
O2725      C2740   1.268       .  A
O2725     Al2733   1.913       .  S
C2726      O2736   1.257       .  A
C2726      O2727   1.274       .  A
C2726      C3157   1.459       .  S
O2727     Al2729   1.937       .  S
O2728      C2730   1.262       .  A
O2728     Al2729   1.937       .  S
Al2729     O2737   1.960       .  S
Al2729     O2739   1.951       .  S
Al2729     O2738   1.796       .  S
C2730      O2743   1.253       .  A
C2730      C4117   1.481       .  S
O2731      C2741   1.258       .  A
O2731     Al2733   1.904       .  S
O2732      C2745   1.258       .  A
O2732     Al2742   1.901       .  S
Al2733     O2746   1.877       .  S
Al2733     O2743   1.888       .  S
Al2733     O2738   1.778       .  S
O2734      C2741   1.255       .  A
O2734     Al2742   1.883       .  S
O2735      C2744   1.266       .  A
O2735     Al2742   1.913       .  S
O2736     Al2742   1.862       .  S
O2737      C2744   1.267       .  A
O2738     Al2742   1.779       .  S
O2739      C2740   1.279       .  A
C2740      C4226   1.490       .  S
C2741      C4309   1.470       .  S
C2744      C3122   1.526       .  S
C2745      O2746   1.258       .  A
C2745      C3138   1.482       .  S
C2748      O2758   1.243       .  A
C2748      O2749   1.276       .  A
C2748      C3109   1.482       .  S
O2749     Al2751   1.986       .  S
O2750      C2752   1.262       .  A
O2750     Al2751   1.923       .  S
Al2751     O2759   1.930       .  S
Al2751     O2761   2.012       .  S
Al2751     O2760   1.791       .  S
C2752      O2765   1.254       .  A
C2752      C3397   1.477       .  S
O2753      C2763   1.266       .  A
O2753     Al2755   1.935       .  S
O2754     Al2764   1.897       .  S
Al2755     O2765   1.879       .  S
Al2755     O2760   1.775       .  S
O2756      C2763   1.259       .  A
O2756     Al2764   1.897       .  S
O2757      C2766   1.267       .  A
O2757     Al2764   1.934       .  S
O2758     Al2764   1.837       .  S
O2759      C2766   1.270       .  A
O2760     Al2764   1.767       .  S
O2761      C2762   1.286       .  A
C2763      C3589   1.480       .  S
C2766      C3125   1.525       .  S
C2767      O2768   1.261       .  A
C2767      C3093   1.448       .  S
O2769      C2784   1.259       .  A
O2769     Al2777   1.870       .  S
C2770      O2780   1.255       .  A
C2770      O2771   1.267       .  A
C2770      C3381   1.442       .  S
O2771     Al2773   1.926       .  S
O2772      C2774   1.249       .  A
O2772     Al2773   1.880       .  S
Al2773     O2781   1.919       .  S
Al2773     O2783   1.977       .  S
Al2773     O2782   1.793       .  S
C2774      O2787   1.254       .  A
C2774      C3026   1.485       .  S
O2775      C2785   1.263       .  A
O2775     Al2777   1.912       .  S
O2776      C2789   1.267       .  A
O2776     Al2786   1.907       .  S
Al2777     O2790   1.879       .  S
Al2777     O2787   1.897       .  S
Al2777     O2782   1.786       .  S
O2778      C2785   1.262       .  A
O2778     Al2786   1.930       .  S
O2779      C2788   1.261       .  A
O2779     Al2786   1.928       .  S
O2780     Al2786   1.827       .  S
O2781      C2788   1.262       .  A
O2782     Al2786   1.793       .  S
O2783      C2784   1.278       .  A
C2784      C3077   1.495       .  S
C2785      C3058   1.497       .  S
C2788      C3042   1.506       .  S
C2789      O2790   1.260       .  A
C2789      C3362   1.455       .  S
O2791      C2806   1.262       .  A
O2791     Al2799   1.884       .  S
C2792      O2802   1.250       .  A
C2792      O2793   1.271       .  A
C2792      C3461   1.465       .  S
O2793     Al2795   1.952       .  S
O2794      C2796   1.254       .  A
O2794     Al2795   1.900       .  S
Al2795     O2803   1.921       .  S
Al2795     O2805   1.953       .  S
Al2795     O2804   1.786       .  S
C2796      O2809   1.246       .  A
C2796      C3237   1.461       .  S
O2797      C2807   1.262       .  A
O2797     Al2799   1.903       .  S
O2798      C2811   1.255       .  A
O2798     Al2808   1.927       .  S
Al2799     O2812   1.870       .  S
Al2799     O2809   1.872       .  S
Al2799     O2804   1.779       .  S
O2800      C2807   1.265       .  A
O2800     Al2808   1.905       .  S
O2801      C2810   1.281       .  A
O2801     Al2808   1.946       .  S
O2802     Al2808   1.851       .  S
O2803      C2810   1.264       .  A
O2804     Al2808   1.807       .  S
O2805      C2806   1.276       .  A
C2806      C3506   1.486       .  S
C2807      C3285   1.476       .  S
C2810      C3045   1.508       .  S
C2811      O2812   1.250       .  A
C2811      C3445   1.497       .  S
O2813      C2828   1.259       .  A
C2814      O2824   1.272       .  A
C2814      O2815   1.258       .  A
C2814      C3141   1.466       .  S
O2815     Al2817   1.891       .  S
O2816      C2818   1.261       .  A
O2816     Al2817   1.897       .  S
Al2817     O2825   1.912       .  S
Al2817     O2827   1.911       .  S
Al2817     O2826   1.780       .  S
C2818      O2831   1.261       .  A
C2818      C4213   1.479       .  S
O2819      C2829   1.255       .  A
O2819     Al2821   1.880       .  S
O2820      C2833   1.277   1_556  A
O2820     Al2830   1.948       .  S
Al2821     O2831   1.903       .  S
Al2821     O2826   1.769       .  S
O2822      C2829   1.261       .  A
O2822     Al2830   1.928       .  S
O2823      C2832   1.269       .  A
O2823     Al2830   1.951       .  S
O2824     Al2830   1.933       .  S
O2825      C2832   1.268       .  A
O2826     Al2830   1.788       .  S
C2828      C3154   1.476       .  S
C2829      C3189   1.487       .  S
C2832      C3010   1.512       .  S
O2835      C2850   1.273       .  A
O2835     Al2843   1.917       .  S
C2836      O2846   1.278       .  A
C2836      O2837   1.240       .  A
C2836      C3090   1.479       .  S
O2837     Al2839   1.826       .  S
O2838      C2840   1.257       .  A
O2838     Al2839   1.912       .  S
Al2839     O2847   1.903       .  S
Al2839     O2849   1.873       .  S
Al2839     O2848   1.759       .  S
C2840      O2853   1.260       .  A
C2840      C3029   1.476       .  S
O2841      C2851   1.263       .  A
O2841     Al2843   1.918       .  S
O2842      C2855   1.286       .  A
O2842     Al2852   2.009       .  S
Al2843     O2856   1.871       .  S
Al2843     O2853   1.915       .  S
Al2843     O2848   1.760       .  S
O2844      C2851   1.261       .  A
O2844     Al2852   1.910       .  S
O2845      C2854   1.274       .  A
O2845     Al2852   1.951       .  S
O2846     Al2852   1.999       .  S
O2847      C2854   1.263       .  A
O2848     Al2852   1.787       .  S
O2849      C2850   1.259       .  A
C2850      C3106   1.449       .  S
C2851      C2994   1.489       .  S
C2854      C3013   1.507       .  S
C2855      O2856   1.260       .  A
C2855      C3634   1.512       .  S
O2857      C2872   1.265       .  A
O2857     Al2865   1.906       .  S
C2858      O2868   1.256       .  A
C2858      O2859   1.274       .  A
C2858      C3698   1.462       .  S
O2859     Al2861   1.945       .  S
O2860      C2862   1.262       .  A
O2860     Al2861   1.928       .  S
Al2861     O2869   1.949       .  S
Al2861     O2871   1.960       .  S
Al2861     O2870   1.787       .  S
C2862      O2875   1.254       .  A
C2862      C3298   1.478       .  S
O2863      C2873   1.261       .  A
O2863     Al2865   1.910       .  S
O2864      C2877   1.260       .  A
O2864     Al2874   1.912       .  S
Al2865     O2878   1.868       .  S
Al2865     O2875   1.894       .  S
Al2865     O2870   1.773       .  S
O2866      C2873   1.258       .  A
O2866     Al2874   1.889       .  S
O2867      C2876   1.268       .  A
O2867     Al2874   1.916       .  S
O2868     Al2874   1.874       .  S
O2869      C2876   1.266       .  A
O2870     Al2874   1.790       .  S
O2871      C2872   1.280       .  A
C2872      C3925   1.490       .  S
C2873      C3221   1.479       .  S
C2876      C2981   1.502       .  S
C2877      O2878   1.253       .  A
C2877      C3685   1.480       .  S
O2879      C2894   1.263       .  A
O2879     Al2887   1.888       .  S
C2880      O2890   1.250       .  A
C2880      O2881   1.266       .  A
C2880      C3621   1.468       .  S
O2881     Al2883   1.955       .  S
O2882      C2884   1.267       .  A
O2882     Al2883   1.935       .  S
Al2883     O2891   1.934       .  S
Al2883     O2893   1.972       .  S
Al2883     O2892   1.800       .  S
C2884      O2897   1.255       .  A
C2884      C2962   1.473       .  S
O2885      C2895   1.267       .  A
O2885     Al2887   1.924       .  S
O2886      C2899   1.260       .  A
O2886     Al2896   1.896       .  S
Al2887     O2900   1.870       .  S
Al2887     O2897   1.872       .  S
Al2887     O2892   1.775       .  S
O2888      C2895   1.261       .  A
O2888     Al2896   1.908       .  S
O2889      C2898   1.263       .  A
O2889     Al2896   1.904       .  S
O2890     Al2896   1.854       .  S
O2891      C2898   1.272       .  A
O2892     Al2896   1.766       .  S
O2893      C2894   1.277       .  A
C2894      C3730   1.492       .  S
C2895      C2997   1.478       .  S
C2898      C2978   1.502       .  S
C2899      O2900   1.256       .  A
C2899      C3602   1.461       .  S
O2901      C2916   1.252       .  A
C2902      O2912   1.271       .  A
C2902      O2903   1.257       .  A
C2902      C3826   1.463       .  S
O2903     Al2905   1.889       .  S
O2904      C2906   1.254       .  A
O2904     Al2905   1.875       .  S
Al2905     O2913   1.919       .  S
Al2905     O2915   1.939       .  S
Al2905     O2914   1.788       .  S
C2906      O2919   1.259       .  A
C2906      C3173   1.463       .  S
O2907      C2917   1.255       .  A
O2907     Al2909   1.892       .  S
O2908      C2921   1.278   1_556  A
O2908     Al2918   1.957       .  S
Al2909     O2919   1.900       .  S
Al2909     O2914   1.770       .  S
O2910      C2917   1.261       .  A
O2910     Al2918   1.912       .  S
O2911      C2920   1.264       .  A
O2911     Al2918   1.923       .  S
O2912     Al2918   1.937       .  S
O2913      C2920   1.270       .  A
O2914     Al2918   1.780       .  S
C2916      C3842   1.493       .  S
C2917      C4290   1.485       .  S
C2920      C2949   1.502       .  S
O2923      C2938   1.254       .  A
O2923     Al2931   1.872       .  S
C2924      O2934   1.278       .  A
C2924      O2925   1.260       .  A
C2924      C3749   1.471       .  S
O2925     Al2927   1.887       .  S
O2926      C2928   1.256       .  A
O2926     Al2927   1.878       .  S
Al2927     O2935   1.910       .  S
Al2927     O2937   1.924       .  S
Al2927     O2936   1.785       .  S
C2928      O2941   1.262       .  A
C2928      C2965   1.486       .  S
O2929      C2939   1.258       .  A
O2929     Al2931   1.905       .  S
O2930      C2943   1.278       .  A
O2930     Al2940   1.954       .  S
Al2931     O2944   1.913       .  S
Al2931     O2941   1.917       .  S
Al2931     O2936   1.771       .  S
O2932      C2939   1.262       .  A
O2932     Al2940   1.927       .  S
O2933      C2942   1.260       .  A
O2933     Al2940   1.925       .  S
O2934     Al2940   1.948       .  S
O2935      C2942   1.267       .  A
O2936     Al2940   1.788       .  S
O2937      C2938   1.264       .  A
C2938      C3765   1.487       .  S
C2939      C3061   1.485       .  S
C2942      C2946   1.501       .  S
C2943      O2944   1.267       .  A
C2943      C3349   1.490       .  S
C2945      C2946   1.405       .  A
C2945      C2950   1.408       .  A
C2945      H2952   1.083       .  S
C2946      C2947   1.418       .  A
C2947      C2948   1.414       .  A
C2947      C2954   1.507       .  S
C2948      C2949   1.410       .  A
C2948      H2953   1.084       .  S
C2949      C2950   1.423       .  A
C2950      C2951   1.508       .  S
C2951      H2955   1.111       .  S
C2951      H2956   1.107       .  S
C2951      H2957   1.103       .  S
C2954      H2958   1.109       .  S
C2954      H2959   1.110       .  S
C2954      H2960   1.111       .  S
C2961      C2962   1.403       .  A
C2961      C2966   1.398       .  A
C2961      H2968   1.085       .  S
C2962      C2963   1.408       .  A
C2963      C2964   1.407       .  A
C2963      C2970   1.506       .  S
C2964      C2965   1.412       .  A
C2964      H2969   1.083       .  S
C2965      C2966   1.418       .  A
C2966      C2967   1.510       .  S
C2967      H2971   1.111       .  S
C2967      H2972   1.108       .  S
C2967      H2973   1.109       .  S
C2970      H2974   1.111       .  S
C2970      H2975   1.110       .  S
C2970      H2976   1.111       .  S
C2977      C2978   1.413       .  A
C2977      C2982   1.421       .  A
C2977      H2984   1.083       .  S
C2978      C2979   1.417       .  A
C2979      C2980   1.404       .  A
C2979      C2986   1.509       .  S
C2980      C2981   1.406       .  A
C2980      H2985   1.080       .  S
C2981      C2982   1.414       .  A
C2982      C2983   1.503       .  S
C2983      H2987   1.111       .  S
C2983      H2988   1.110       .  S
C2983      H2989   1.110       .  S
C2986      H2990   1.110       .  S
C2986      H2991   1.109       .  S
C2986      H2992   1.110       .  S
C2993      C2994   1.406       .  A
C2993      C2998   1.402       .  A
C2993      H3000   1.084       .  S
C2994      C2995   1.419       .  A
C2995      C2996   1.409       .  A
C2995      C3002   1.507       .  S
C2996      C2997   1.403       .  A
C2996      H3001   1.084       .  S
C2997      C2998   1.413       .  A
C2998      C2999   1.509       .  S
C2999      H3003   1.111       .  S
C2999      H3004   1.108       .  S
C2999      H3005   1.110       .  S
C3002      H3006   1.109       .  S
C3002      H3007   1.109       .  S
C3002      H3008   1.111       .  S
C3009      C3010   1.420       .  A
C3009      C3014   1.422   1_565  A
C3009      H3016   1.083       .  S
C3010      C3011   1.420   1_565  A
C3011      C3012   1.402       .  A
C3011      C3018   1.510       .  S
C3012      C3013   1.409       .  A
C3012      H3017   1.082       .  S
C3013      C3014   1.412       .  A
C3014      C3015   1.503       .  S
C3015      H3019   1.111       .  S
C3015      H3020   1.110       .  S
C3015      H3021   1.110       .  S
C3018      H3022   1.110       .  S
C3018      H3023   1.106   1_545  S
C3018      H3024   1.110       .  S
C3025      C3026   1.407       .  A
C3025      C3030   1.404       .  A
C3025      H3032   1.084       .  S
C3026      C3027   1.419       .  A
C3027      C3028   1.402       .  A
C3027      C3034   1.509       .  S
C3028      C3029   1.403       .  A
C3028      H3033   1.084       .  S
C3029      C3030   1.411       .  A
C3030      C3031   1.507       .  S
C3031      H3035   1.111       .  S
C3031      H3036   1.110       .  S
C3031      H3037   1.110       .  S
C3034      H3038   1.110       .  S
C3034      H3039   1.111       .  S
C3034      H3040   1.111       .  S
C3041      C3042   1.398       .  A
C3041      C3046   1.415       .  A
C3041      H3048   1.084       .  S
C3042      C3043   1.425       .  A
C3043      C3044   1.411       .  A
C3043      C3050   1.500       .  S
C3044      C3045   1.398       .  A
C3044      H3049   1.084       .  S
C3045      C3046   1.433       .  A
C3046      C3047   1.509       .  S
C3047      H3051   1.110       .  S
C3047      H3052   1.099       .  S
C3047      H3053   1.111       .  S
C3050      H3054   1.104       .  S
C3050      H3055   1.106       .  S
C3050      H3056   1.111       .  S
C3057      C3058   1.410       .  A
C3057      C3062   1.410       .  A
C3057      H3064   1.084       .  S
C3058      C3059   1.422       .  A
C3059      C3060   1.405       .  A
C3059      C3066   1.510       .  S
C3060      C3061   1.403       .  A
C3060      H3065   1.085       .  S
C3061      C3062   1.412       .  A
C3062      C3063   1.506       .  S
C3063      H3067   1.111       .  S
C3063      H3068   1.110       .  S
C3063      H3069   1.109       .  S
C3066      H3070   1.110       .  S
C3066      H3071   1.111       .  S
C3066      H3072   1.111       .  S
C3073      C3074   1.412       .  A
C3073      C3078   1.412       .  A
C3073      H3080   1.084       .  S
C3074      C3075   1.413       .  A
C3075      C3076   1.413       .  A
C3076      C3077   1.411       .  A
C3076      H3081   1.083       .  S
C3077      C3078   1.413       .  A
C3078      C3079   1.507       .  S
C3079      H3083   1.111       .  S
C3079      H3084   1.110       .  S
C3079      H3085   1.111       .  S
C3082      H3086   1.111       .  S
C3082      H3087   1.110       .  S
C3082      H3088   1.110       .  S
C3089      C3090   1.404       .  A
C3089      C3094   1.405       .  A
C3089      H3096   1.084       .  S
C3090      C3091   1.432       .  A
C3091      C3092   1.388       .  A
C3091      C3098   1.517       .  S
C3092      C3093   1.389       .  A
C3092      H3097   1.087       .  S
C3093      C3094   1.412       .  A
C3095      H3099   1.109       .  S
C3095      H3100   1.110       .  S
C3095      H3101   1.110       .  S
C3098      H3102   1.109       .  S
C3098      H3103   1.110       .  S
C3098      H3104   1.111       .  S
C3105      C3106   1.383       .  A
C3105      C3110   1.392       .  A
C3105      H3112   1.085       .  S
C3106      C3107   1.409       .  A
C3107      C3108   1.402       .  A
C3107      C3114   1.504       .  S
C3108      C3109   1.401       .  A
C3108      H3113   1.083       .  S
C3109      C3110   1.438       .  A
C3110      C3111   1.512       .  S
C3111      H3115   1.111       .  S
C3111      H3116   1.109       .  S
C3111      H3117   1.107       .  S
C3114      H3118   1.111       .  S
C3114      H3119   1.104       .  S
C3114      H3120   1.110       .  S
C3121      C3122   1.418       .  A
C3121      C3126   1.426   1_565  A
C3121      H3128   1.084       .  S
C3122      C3123   1.423       .  A
C3123      C3124   1.410   1_565  A
C3123      C3130   1.508       .  S
C3124      C3125   1.410       .  A
C3124      H3129   1.081       .  S
C3125      C3126   1.419       .  A
C3126      C3127   1.504       .  S
C3127      H3131   1.111   1_545  S
C3127      H3132   1.110       .  S
C3127      H3133   1.109       .  S
C3130      H3134   1.103       .  S
C3130      H3135   1.110       .  S
C3130      H3136   1.107   1_565  S
C3137      C3138   1.407       .  A
C3137      C3142   1.398       .  A
C3137      H3144   1.085       .  S
C3138      C3139   1.415       .  A
C3139      C3140   1.406       .  A
C3139      C3146   1.508       .  S
C3140      C3141   1.407       .  A
C3140      H3145   1.085       .  S
C3141      C3142   1.412       .  A
C3142      C3143   1.510       .  S
C3143      H3147   1.110       .  S
C3143      H3148   1.110       .  S
C3143      H3149   1.106       .  S
C3146      H3150   1.110       .  S
C3146      H3151   1.109       .  S
C3146      H3152   1.111       .  S
C3153      C3154   1.406       .  A
C3153      C3158   1.397       .  A
C3153      H3160   1.084       .  S
C3154      C3155   1.414       .  A
C3155      C3156   1.404       .  A
C3156      C3157   1.407       .  A
C3156      H3161   1.085       .  S
C3157      C3158   1.408       .  A
C3158      C3159   1.505       .  S
C3159      H3163   1.110       .  S
C3159      H3164   1.107       .  S
C3159      H3165   1.111       .  S
C3162      H3166   1.108   1_554  S
C3162      H3167   1.110       .  S
C3162      H3168   1.108       .  S
C3169      C3170   1.404       .  A
C3169      C3174   1.398       .  A
C3169      H3176   1.082       .  S
C3170      C3171   1.418       .  A
C3171      C3172   1.397       .  A
C3171      C3178   1.503       .  S
C3172      C3173   1.397       .  A
C3172      H3177   1.085       .  S
C3173      C3174   1.412       .  A
C3174      C3175   1.508       .  S
C3175      H3179   1.111       .  S
C3175      H3180   1.110       .  S
C3175      H3181   1.110       .  S
C3178      H3182   1.110       .  S
C3178      H3183   1.110       .  S
C3178      H3184   1.111       .  S
C3185      C3186   1.401       .  A
C3185      C3190   1.405       .  A
C3185      H3192   1.085       .  S
C3186      C3187   1.402       .  A
C3187      C3188   1.400       .  A
C3187      C3194   1.499       .  S
C3188      C3189   1.410       .  A
C3188      H3193   1.084       .  S
C3189      C3190   1.419       .  A
C3190      C3191   1.507       .  S
C3191      H3195   1.111       .  S
C3191      H3196   1.109       .  S
C3191      H3197   1.111       .  S
C3194      H3198   1.107       .  S
C3194      H3199   1.105       .  S
C3201      C3206   1.413   1_554  A
C3201      H3208   1.083       .  S
C3202      C3203   1.418       .  A
C3203      C3204   1.424       .  A
C3203      C3210   1.505       .  S
C3204      H3209   1.083       .  S
C3205      C3206   1.425       .  A
C3206      C3207   1.506       .  S
C3207      H3211   1.111       .  S
C3207      H3212   1.106       .  S
C3207      H3213   1.107       .  S
C3210      H3214   1.110       .  S
C3210      H3215   1.109       .  S
C3210      H3216   1.111       .  S
C3217      C3218   1.400       .  A
C3217      C3222   1.406       .  A
C3217      H3224   1.083       .  S
C3218      C3219   1.413       .  A
C3219      C3220   1.400       .  A
C3219      C3226   1.507       .  S
C3220      C3221   1.402       .  A
C3220      H3225   1.084       .  S
C3221      C3222   1.419       .  A
C3222      C3223   1.507       .  S
C3223      H3227   1.111       .  S
C3223      H3228   1.110       .  S
C3223      H3229   1.110       .  S
C3226      H3230   1.111       .  S
C3226      H3231   1.108       .  S
C3226      H3232   1.111       .  S
C3233      C3234   1.404       .  A
C3233      C3238   1.403       .  A
C3233      H3240   1.083       .  S
C3234      C3235   1.416       .  A
C3235      C3236   1.396       .  A
C3235      C3242   1.507       .  S
C3236      C3237   1.397       .  A
C3236      H3241   1.085       .  S
C3237      C3238   1.406       .  A
C3238      C3239   1.502       .  S
C3239      H3243   1.111       .  S
C3239      H3244   1.111       .  S
C3239      H3245   1.109       .  S
C3242      H3246   1.105       .  S
C3242      H3247   1.111       .  S
C3242      H3248   1.111       .  S
C3249      C3250   1.405       .  A
C3249      C3254   1.403       .  A
C3249      H3256   1.085       .  S
C3250      C3251   1.413       .  A
C3251      C3252   1.408       .  A
C3251      C3258   1.507       .  S
C3252      C3253   1.411       .  A
C3252      H3257   1.084       .  S
C3253      C3254   1.415       .  A
C3254      C3255   1.508       .  S
C3255      H3259   1.111       .  S
C3255      H3260   1.109       .  S
C3255      H3261   1.111       .  S
C3258      H3262   1.110       .  S
C3258      H3263   1.106       .  S
C3265      C3266   1.415       .  A
C3265      C3270   1.419   1_545  A
C3265      H3272   1.083       .  S
C3266      C3267   1.427       .  A
C3267      C3268   1.411   1_545  A
C3267      C3274   1.509       .  S
C3268      C3269   1.405       .  A
C3268      H3273   1.083       .  S
C3269      C3270   1.415       .  A
C3270      C3271   1.505       .  S
C3271      H3275   1.111   1_565  S
C3271      H3276   1.109       .  S
C3271      H3277   1.110       .  S
C3274      H3278   1.110       .  S
C3274      H3279   1.108       .  S
C3274      H3280   1.111       .  S
C3281      C3282   1.409       .  A
C3281      C3286   1.403       .  A
C3281      H3288   1.084       .  S
C3282      C3283   1.416       .  A
C3283      C3284   1.403       .  A
C3283      C3290   1.509       .  S
C3284      C3285   1.405       .  A
C3284      H3289   1.085       .  S
C3285      C3286   1.410       .  A
C3286      C3287   1.507       .  S
C3287      H3291   1.111       .  S
C3287      H3292   1.110       .  S
C3287      H3293   1.109       .  S
C3290      H3294   1.111       .  S
C3290      H3295   1.110       .  S
C3290      H3296   1.111       .  S
C3297      C3298   1.399       .  A
C3297      C3302   1.400       .  A
C3297      H3304   1.082       .  S
C3298      C3299   1.411       .  A
C3299      C3300   1.409       .  A
C3299      C3306   1.507       .  S
C3300      C3301   1.410       .  A
C3300      H3305   1.084       .  S
C3301      C3302   1.421       .  A
C3302      C3303   1.510       .  S
C3303      H3307   1.110       .  S
C3303      H3308   1.110       .  S
C3303      H3309   1.110       .  S
C3306      H3310   1.110       .  S
C3306      H3311   1.111       .  S
C3306      H3312   1.111       .  S
C3313      C3314   1.408       .  A
C3313      C3318   1.412       .  A
C3313      H3320   1.083       .  S
C3314      C3315   1.411       .  A
C3315      C3316   1.413       .  A
C3315      C3322   1.506       .  S
C3316      C3317   1.417       .  A
C3316      H3321   1.084       .  S
C3317      C3318   1.420       .  A
C3318      C3319   1.506       .  S
C3319      H3323   1.111       .  S
C3319      H3324   1.110       .  S
C3319      H3325   1.107       .  S
C3322      H3326   1.110       .  S
C3322      H3327   1.110       .  S
C3322      H3328   1.111       .  S
C3329      C3330   1.404       .  A
C3329      C3334   1.400       .  A
C3329      H3336   1.085       .  S
C3330      C3331   1.409       .  A
C3331      C3332   1.403       .  A
C3331      C3338   1.506       .  S
C3332      C3333   1.404       .  A
C3332      H3337   1.085       .  S
C3333      C3334   1.409       .  A
C3334      C3335   1.508       .  S
C3335      H3339   1.111       .  S
C3335      H3340   1.110   1_655  S
C3335      H3341   1.110   1_655  S
C3338      H3342   1.110       .  S
C3338      H3343   1.109       .  S
C3338      H3344   1.111       .  S
C3345      C3346   1.403       .  A
C3345      C3350   1.412       .  A
C3345      H3352   1.084       .  S
C3346      C3347   1.421       .  A
C3347      C3348   1.411       .  A
C3347      C3354   1.507       .  S
C3348      C3349   1.402       .  A
C3348      H3353   1.084       .  S
C3349      C3350   1.419       .  A
C3350      C3351   1.506       .  S
C3351      H3355   1.110       .  S
C3351      H3356   1.110       .  S
C3351      H3357   1.109       .  S
C3354      H3358   1.110       .  S
C3354      H3359   1.110       .  S
C3354      H3360   1.110       .  S
C3361      C3362   1.410       .  A
C3361      C3366   1.405       .  A
C3361      H3368   1.084       .  S
C3362      C3363   1.397       .  A
C3363      C3364   1.394       .  A
C3363      C3370   1.507       .  S
C3364      C3365   1.417       .  A
C3364      H3369   1.084   1_556  S
C3365      C3366   1.407       .  A
C3366      C3367   1.505       .  S
C3367      H3371   1.111       .  S
C3367      H3372   1.111       .  S
C3367      H3373   1.110       .  S
C3370      H3374   1.109       .  S
C3370      H3375   1.110       .  S
C3370      H3376   1.111       .  S
C3377      C3378   1.412       .  A
C3377      C3382   1.386       .  A
C3377      H3384   1.082       .  S
C3378      C3379   1.405       .  A
C3379      C3380   1.402       .  A
C3379      C3386   1.505       .  S
C3380      C3381   1.409       .  A
C3380      H3385   1.084       .  S
C3381      C3382   1.393       .  A
C3382      C3383   1.509       .  S
C3383      H3387   1.111       .  S
C3383      H3388   1.110       .  S
C3383      H3389   1.111       .  S
C3386      H3390   1.110       .  S
C3386      H3391   1.110       .  S
C3386      H3392   1.111       .  S
C3393      C3394   1.411       .  A
C3393      C3398   1.401       .  A
C3393      H3400   1.082       .  S
C3394      C3395   1.413       .  A
C3395      C3396   1.407       .  A
C3395      C3402   1.507       .  S
C3396      C3397   1.408       .  A
C3396      H3401   1.083       .  S
C3397      C3398   1.406       .  A
C3398      C3399   1.507       .  S
C3399      H3403   1.111       .  S
C3399      H3404   1.110       .  S
C3399      H3405   1.108       .  S
C3402      H3406   1.110       .  S
C3402      H3407   1.110       .  S
C3402      H3408   1.111       .  S
C3409      C3414   1.424       .  A
C3409      H3416   1.083       .  S
C3410      C3411   1.416       .  A
C3411      C3412   1.406       .  A
C3411      C3418   1.508       .  S
C3412      H3417   1.076       .  S
C3413      C3414   1.415       .  A
C3414      C3415   1.504       .  S
C3415      H3419   1.111       .  S
C3415      H3420   1.110       .  S
C3415      H3421   1.110       .  S
C3418      H3422   1.110       .  S
C3418      H3423   1.106       .  S
C3418      H3424   1.107       .  S
C3425      C3426   1.404       .  A
C3425      C3430   1.410       .  A
C3425      H3432   1.084       .  S
C3426      C3427   1.417       .  A
C3427      C3428   1.408       .  A
C3427      C3434   1.507       .  S
C3428      C3429   1.403       .  A
C3428      H3433   1.085       .  S
C3429      C3430   1.414       .  A
C3430      C3431   1.506       .  S
C3431      H3435   1.111       .  S
C3431      H3436   1.108       .  S
C3431      H3437   1.110       .  S
C3434      H3438   1.111       .  S
C3434      H3439   1.110       .  S
C3434      H3440   1.110       .  S
C3441      C3442   1.408       .  A
C3441      C3446   1.410       .  A
C3441      H3448   1.085       .  S
C3442      C3443   1.404       .  A
C3443      C3444   1.398       .  A
C3443      C3450   1.510       .  S
C3444      C3445   1.412       .  A
C3444      H3449   1.080       .  S
C3445      C3446   1.417       .  A
C3446      C3447   1.508       .  S
C3447      H3451   1.111       .  S
C3447      H3452   1.110       .  S
C3447      H3453   1.109       .  S
C3450      H3454   1.108       .  S
C3450      H3455   1.110       .  S
C3450      H3456   1.111       .  S
C3457      C3458   1.412       .  A
C3457      C3462   1.401       .  A
C3457      H3464   1.083       .  S
C3458      C3459   1.413       .  A
C3459      C3460   1.396       .  A
C3459      C3466   1.511       .  S
C3460      C3461   1.408       .  A
C3460      H3465   1.080       .  S
C3461      C3462   1.405       .  A
C3462      C3463   1.505       .  S
C3463      H3467   1.111       .  S
C3463      H3468   1.107       .  S
C3463      H3469   1.110       .  S
C3466      H3470   1.108       .  S
C3466      H3471   1.110       .  S
C3466      H3472   1.111       .  S
C3473      C3474   1.409   1_655  A
C3473      C3478   1.399       .  A
C3473      H3480   1.084   1_655  S
C3474      C3475   1.418   1_455  A
C3475      C3476   1.404       .  A
C3475      C3482   1.508       .  S
C3476      C3477   1.403       .  A
C3476      H3481   1.085       .  S
C3477      C3478   1.410       .  A
C3478      C3479   1.511       .  S
C3479      H3483   1.110       .  S
C3479      H3484   1.110       .  S
C3479      H3485   1.106       .  S
C3482      H3486   1.110   1_655  S
C3482      H3487   1.110       .  S
C3482      H3488   1.111       .  S
C3489      C3490   1.395       .  A
C3489      C3494   1.401       .  A
C3489      H3496   1.086       .  S
C3490      C3491   1.410       .  A
C3491      C3492   1.405       .  A
C3491      C3498   1.503       .  S
C3492      C3493   1.406       .  A
C3492      H3497   1.084       .  S
C3493      C3494   1.428       .  A
C3494      C3495   1.510   1_455  S
C3495      H3499   1.111       .  S
C3495      H3500   1.109       .  S
C3495      H3501   1.105       .  S
C3498      H3502   1.105       .  S
C3498      H3503   1.110       .  S
C3498      H3504   1.111       .  S
C3505      C3506   1.406       .  A
C3505      C3510   1.409       .  A
C3505      H3512   1.085       .  S
C3506      C3507   1.412       .  A
C3507      C3508   1.412       .  A
C3507      C3514   1.506       .  S
C3508      C3509   1.409       .  A
C3508      H3513   1.084       .  S
C3509      C3510   1.415       .  A
C3510      C3511   1.505       .  S
C3511      H3515   1.110       .  S
C3511      H3516   1.110       .  S
C3514      H3518   1.109       .  S
C3514      H3519   1.110       .  S
C3514      H3520   1.111       .  S
C3521      C3522   1.407       .  A
C3521      C3526   1.404       .  A
C3521      H3528   1.082       .  S
C3522      C3523   1.420       .  A
C3523      C3524   1.403       .  A
C3523      C3530   1.510       .  S
C3524      C3525   1.403       .  A
C3524      H3529   1.085       .  S
C3525      C3526   1.412       .  A
C3526      C3527   1.507       .  S
C3527      H3531   1.111       .  S
C3527      H3532   1.110       .  S
C3527      H3533   1.109       .  S
C3530      H3534   1.110       .  S
C3530      H3535   1.111       .  S
C3530      H3536   1.111       .  S
C3537      C3538   1.407       .  A
C3537      C3542   1.414   1_545  A
C3537      H3544   1.084       .  S
C3538      C3539   1.416       .  A
C3539      C3540   1.414   1_545  A
C3539      C3546   1.507       .  S
C3540      C3541   1.413       .  A
C3540      H3545   1.083       .  S
C3541      C3542   1.425       .  A
C3542      C3543   1.507       .  S
C3543      H3547   1.111   1_565  S
C3543      H3548   1.105       .  S
C3543      H3549   1.110       .  S
C3546      H3550   1.110       .  S
C3546      H3551   1.109       .  S
C3546      H3552   1.111       .  S
C3553      C3554   1.407       .  A
C3553      C3558   1.404       .  A
C3553      H3560   1.082       .  S
C3554      C3555   1.406       .  A
C3555      C3556   1.396       .  A
C3555      C3562   1.508       .  S
C3556      C3557   1.405       .  A
C3556      H3561   1.084       .  S
C3557      C3558   1.406       .  A
C3559      H3563   1.111       .  S
C3559      H3564   1.111   1_655  S
C3559      H3565   1.110       .  S
C3562      H3566   1.110       .  S
C3562      H3567   1.109       .  S
C3562      H3568   1.110       .  S
C3569      C3570   1.391       .  A
C3569      C3574   1.402       .  A
C3569      H3576   1.085       .  S
C3570      C3571   1.411       .  A
C3571      C3572   1.407       .  A
C3571      C3578   1.503       .  S
C3572      C3573   1.405       .  A
C3572      H3577   1.084       .  S
C3573      C3574   1.435       .  A
C3574      C3575   1.512       .  S
C3575      H3579   1.111       .  S
C3575      H3580   1.110   1_455  S
C3575      H3581   1.108       .  S
C3578      H3582   1.102       .  S
C3578      H3583   1.110       .  S
C3578      H3584   1.111       .  S
C3585      C3586   1.410       .  A
C3585      C3590   1.411       .  A
C3585      H3592   1.084       .  S
C3586      C3587   1.418       .  A
C3587      C3588   1.393       .  A
C3587      C3594   1.512       .  S
C3588      C3589   1.402       .  A
C3588      H3593   1.081       .  S
C3589      C3590   1.411       .  A
C3590      C3591   1.504       .  S
C3591      H3595   1.111       .  S
C3591      H3596   1.111       .  S
C3591      H3597   1.109       .  S
C3594      H3598   1.110       .  S
C3594      H3599   1.110       .  S
C3594      H3600   1.111       .  S
C3601      C3602   1.408       .  A
C3601      C3606   1.392       .  A
C3601      H3608   1.084       .  S
C3602      C3603   1.402       .  A
C3603      C3604   1.398       .  A
C3603      C3610   1.506       .  S
C3604      C3605   1.415       .  A
C3605      C3606   1.404       .  A
C3606      C3607   1.502       .  S
C3607      H3611   1.111       .  S
C3607      H3612   1.110       .  S
C3607      H3613   1.110       .  S
C3610      H3614   1.111       .  S
C3610      H3615   1.111       .  S
C3610      H3616   1.110       .  S
C3617      C3618   1.413       .  A
C3617      C3622   1.402       .  A
C3617      H3624   1.081       .  S
C3618      C3619   1.397       .  A
C3619      C3620   1.396       .  A
C3619      C3626   1.506       .  S
C3620      C3621   1.412       .  A
C3620      H3625   1.079       .  S
C3621      C3622   1.399       .  A
C3622      C3623   1.505       .  S
C3623      H3627   1.110       .  S
C3623      H3628   1.110       .  S
C3623      H3629   1.111       .  S
C3626      H3630   1.110       .  S
C3626      H3631   1.110       .  S
C3626      H3632   1.111       .  S
C3633      C3634   1.414       .  A
C3633      C3638   1.414       .  A
C3633      H3640   1.084       .  S
C3634      C3635   1.417       .  A
C3635      C3636   1.417       .  A
C3635      C3642   1.506       .  S
C3636      C3637   1.415       .  A
C3636      H3641   1.084       .  S
C3637      C3638   1.417       .  A
C3638      C3639   1.507       .  S
C3639      H3643   1.111       .  S
C3639      H3644   1.110       .  S
C3639      H3645   1.110       .  S
C3642      H3646   1.110       .  S
C3642      H3647   1.109       .  S
C3642      H3648   1.111       .  S
C3649      C3650   1.400       .  A
C3649      C3654   1.403       .  A
C3650      C3651   1.402       .  A
C3651      C3652   1.402       .  A
C3651      C3658   1.505       .  S
C3652      C3653   1.414       .  A
C3652      H3657   1.083       .  S
C3653      C3654   1.421       .  A
C3655      H3659   1.111       .  S
C3655      H3660   1.110       .  S
C3655      H3661   1.103       .  S
C3658      H3662   1.110       .  S
C3658      H3663   1.111       .  S
C3658      H3664   1.111   1_556  S
C3665      C3666   1.407       .  A
C3665      C3670   1.411       .  A
C3665      H3672   1.085       .  S
C3666      C3667   1.412       .  A
C3667      C3668   1.413       .  A
C3667      C3674   1.506       .  S
C3668      C3669   1.409       .  A
C3668      H3673   1.084       .  S
C3669      C3670   1.416       .  A
C3670      C3671   1.506       .  S
C3671      H3675   1.111       .  S
C3671      H3676   1.110       .  S
C3671      H3677   1.109       .  S
C3674      H3678   1.110       .  S
C3674      H3679   1.108       .  S
C3674      H3680   1.111       .  S
C3681      C3682   1.409       .  A
C3681      C3686   1.400       .  A
C3681      H3688   1.080       .  S
C3682      C3683   1.404       .  A
C3683      C3684   1.400       .  A
C3683      C3690   1.506       .  S
C3684      C3685   1.413       .  A
C3684      H3689   1.083       .  S
C3685      C3686   1.411       .  A
C3686      C3687   1.510       .  S
C3687      H3691   1.111       .  S
C3687      H3692   1.110       .  S
C3687      H3693   1.109       .  S
C3690      H3694   1.109       .  S
C3690      H3695   1.109       .  S
C3690      H3696   1.111       .  S
C3697      C3698   1.400       .  A
C3697      C3702   1.400       .  A
C3697      H3704   1.085       .  S
C3698      C3699   1.407       .  A
C3699      C3700   1.406       .  A
C3699      C3706   1.505       .  S
C3700      C3701   1.411       .  A
C3700      H3705   1.083       .  S
C3701      C3702   1.423       .  A
C3702      C3703   1.513       .  S
C3703      H3707   1.111       .  S
C3703      H3708   1.110       .  S
C3703      H3709   1.108       .  S
C3706      H3710   1.109       .  S
C3706      H3711   1.110       .  S
C3706      H3712   1.111       .  S
C3713      C3714   1.397       .  A
C3713      C3718   1.415       .  A
C3713      H3720   1.084       .  S
C3715      C3716   1.415       .  A
C3715      C3722   1.509       .  S
C3716      C3717   1.396       .  A
C3716      H3721   1.084       .  S
C3718      C3719   1.506       .  S
C3719      H3723   1.111       .  S
C3719      H3724   1.094       .  S
C3719      H3725   1.110       .  S
C3722      H3726   1.099       .  S
C3722      H3727   1.110       .  S
C3722      H3728   1.111       .  S
C3729      C3730   1.406       .  A
C3729      C3734   1.410       .  A
C3729      H3736   1.084       .  S
C3730      C3731   1.419       .  A
C3731      C3732   1.410       .  A
C3731      C3738   1.508       .  S
C3732      C3733   1.404       .  A
C3732      H3737   1.084       .  S
C3733      C3734   1.413       .  A
C3734      C3735   1.506       .  S
C3735      H3739   1.111       .  S
C3735      H3740   1.110       .  S
C3735      H3741   1.109       .  S
C3738      H3742   1.110       .  S
C3738      H3743   1.108       .  S
C3738      H3744   1.111       .  S
C3745      C3746   1.410       .  A
C3745      C3750   1.404       .  A
C3745      H3752   1.084       .  S
C3746      C3747   1.413       .  A
C3747      C3748   1.409       .  A
C3747      C3754   1.505       .  S
C3748      C3749   1.409       .  A
C3748      H3753   1.085       .  S
C3749      C3750   1.406       .  A
C3750      C3751   1.507       .  S
C3751      H3755   1.111       .  S
C3751      H3756   1.111       .  S
C3751      H3757   1.110       .  S
C3754      H3758   1.110       .  S
C3754      H3760   1.110       .  S
C3761      C3762   1.394       .  A
C3761      C3766   1.395       .  A
C3761      H3768   1.085       .  S
C3762      C3763   1.408       .  A
C3763      C3764   1.406       .  A
C3763      C3770   1.500       .  S
C3764      C3765   1.408       .  A
C3764      H3769   1.084       .  S
C3765      C3766   1.427       .  A
C3766      C3767   1.510       .  S
C3767      H3771   1.111       .  S
C3767      H3772   1.110       .  S
C3767      H3773   1.106       .  S
C3770      H3774   1.102       .  S
C3770      H3775   1.110       .  S
C3770      H3776   1.111       .  S
C3777      C3778   1.404       .  A
C3777      C3782   1.401       .  A
C3777      H3784   1.085       .  S
C3778      C3779   1.413       .  A
C3779      C3780   1.407       .  A
C3779      C3786   1.507       .  S
C3780      C3781   1.404       .  A
C3780      H3785   1.084       .  S
C3781      C3782   1.412       .  A
C3782      C3783   1.509       .  S
C3783      H3787   1.111       .  S
C3783      H3788   1.110       .  S
C3783      H3789   1.109       .  S
C3786      H3790   1.111       .  S
C3786      H3791   1.110       .  S
C3786      H3792   1.111       .  S
C3793      C3794   1.412       .  A
C3793      C3798   1.408       .  A
C3793      H3800   1.084       .  S
C3794      C3795   1.412       .  A
C3795      C3796   1.398       .  A
C3795      C3802   1.509       .  S
C3796      C3797   1.405       .  A
C3796      H3801   1.083       .  S
C3797      C3798   1.407       .  A
C3798      C3799   1.505       .  S
C3799      H3803   1.111       .  S
C3799      H3804   1.110       .  S
C3799      H3805   1.110       .  S
C3802      H3806   1.110       .  S
C3802      H3807   1.110       .  S
C3802      H3808   1.111       .  S
C3809      C3810   1.407       .  A
C3809      C3814   1.416       .  A
C3809      H3816   1.084       .  S
C3810      C3811   1.417       .  A
C3811      C3812   1.415       .  A
C3811      C3818   1.506       .  S
C3812      C3813   1.407       .  A
C3812      H3817   1.084       .  S
C3813      C3814   1.418       .  A
C3814      C3815   1.505       .  S
C3815      H3819   1.110       .  S
C3815      H3820   1.108       .  S
C3815      H3821   1.110       .  S
C3818      H3822   1.109       .  S
C3818      H3823   1.110       .  S
C3818      H3824   1.111       .  S
C3825      C3826   1.397       .  A
C3825      C3830   1.402       .  A
C3825      H3832   1.085       .  S
C3826      C3827   1.408       .  A
C3827      C3828   1.405       .  A
C3827      C3834   1.506       .  S
C3828      C3829   1.411       .  A
C3828      H3833   1.083       .  S
C3829      C3830   1.427       .  A
C3830      C3831   1.511       .  S
C3831      H3835   1.111       .  S
C3831      H3836   1.109       .  S
C3831      H3837   1.110       .  S
C3834      H3838   1.110       .  S
C3834      H3839   1.109       .  S
C3834      H3840   1.111       .  S
C3841      C3842   1.410       .  A
C3841      C3846   1.407       .  A
C3841      H3848   1.083       .  S
C3842      C3843   1.425       .  A
C3843      C3844   1.399       .  A
C3843      C3850   1.512       .  S
C3844      C3845   1.398       .  A
C3844      H3849   1.084       .  S
C3845      C3846   1.409       .  A
C3846      C3847   1.505       .  S
C3847      H3851   1.111       .  S
C3847      H3852   1.109       .  S
C3847      H3853   1.110       .  S
C3850      H3854   1.105       .  S
C3850      H3855   1.111       .  S
C3850      H3856   1.111       .  S
C3857      C3858   1.416       .  A
C3857      C3862   1.424       .  A
C3857      H3864   1.083       .  S
C3858      C3859   1.426       .  A
C3859      C3860   1.413       .  A
C3859      C3866   1.509       .  S
C3860      C3861   1.408       .  A
C3860      H3865   1.081       .  S
C3861      C3862   1.418       .  A
C3862      C3863   1.504       .  S
C3863      H3867   1.111       .  S
C3863      H3868   1.110       .  S
C3863      H3869   1.109       .  S
C3866      H3870   1.109       .  S
C3866      H3871   1.111       .  S
C3866      H3872   1.111       .  S
C3873      C3874   1.404       .  A
C3873      C3878   1.413       .  A
C3873      H3880   1.083       .  S
C3874      C3875   1.416       .  A
C3875      C3876   1.407       .  A
C3875      C3882   1.507       .  S
C3876      C3877   1.403       .  A
C3876      H3881   1.083       .  S
C3877      C3878   1.416       .  A
C3878      C3879   1.506       .  S
C3879      H3883   1.111       .  S
C3879      H3884   1.110       .  S
C3879      H3885   1.110       .  S
C3882      H3886   1.110       .  S
C3882      H3887   1.111       .  S
C3882      H3888   1.110       .  S
C3889      C3890   1.410   1_655  A
C3889      C3894   1.395   1_655  A
C3889      H3896   1.084       .  S
C3890      C3891   1.417       .  A
C3891      C3892   1.409       .  A
C3891      C3898   1.506       .  S
C3892      C3893   1.405       .  A
C3892      H3897   1.085       .  S
C3893      C3894   1.407       .  A
C3894      C3895   1.509       .  S
C3895      H3899   1.110       .  S
C3895      H3900   1.110   1_455  S
C3895      H3901   1.109       .  S
C3898      H3902   1.110       .  S
C3898      H3903   1.110       .  S
C3898      H3904   1.111       .  S
C3905      C3906   1.406       .  A
C3905      C3910   1.406       .  A
C3905      H3912   1.085       .  S
C3906      C3907   1.403       .  A
C3907      C3908   1.396       .  A
C3907      C3914   1.506       .  S
C3908      C3909   1.408       .  A
C3908      H3913   1.084   1_655  S
C3909      C3910   1.414       .  A
C3911      H3915   1.111       .  S
C3911      H3916   1.110       .  S
C3911      H3917   1.109       .  S
C3914      H3918   1.110       .  S
C3914      H3919   1.108       .  S
C3914      H3920   1.110       .  S
C3921      C3922   1.405       .  A
C3921      C3926   1.415       .  A
C3921      H3928   1.083       .  S
C3922      C3923   1.417       .  A
C3923      C3924   1.410       .  A
C3923      C3930   1.506       .  S
C3924      C3925   1.404       .  A
C3924      H3929   1.083       .  S
C3925      C3926   1.416       .  A
C3926      C3927   1.505       .  S
C3927      H3931   1.111       .  S
C3927      H3932   1.110       .  S
C3927      H3933   1.108       .  S
C3930      H3934   1.110       .  S
C3930      H3935   1.110       .  S
C3930      H3936   1.110       .  S
C3937      C3938   1.407   1_455  A
C3937      C3942   1.401       .  A
C3937      H3944   1.084       .  S
C3938      C3939   1.424   1_655  A
C3939      C3940   1.401       .  A
C3939      C3946   1.509   1_455  S
C3940      C3941   1.397       .  A
C3940      H3945   1.086       .  S
C3941      C3942   1.409       .  A
C3942      C3943   1.507       .  S
C3943      H3947   1.111       .  S
C3943      H3948   1.110       .  S
C3943      H3949   1.108       .  S
C3946      H3950   1.108       .  S
C3946      H3951   1.110       .  S
C3946      H3952   1.111       .  S
C3953      C3954   1.395       .  A
C3953      C3958   1.401       .  A
C3953      H3960   1.086       .  S
C3954      C3955   1.411       .  A
C3955      C3956   1.406       .  A
C3955      C3962   1.505       .  S
C3956      C3957   1.406       .  A
C3956      H3961   1.084       .  S
C3957      C3958   1.427       .  A
C3958      C3959   1.509   1_655  S
C3959      H3963   1.110   1_455  S
C3959      H3964   1.110       .  S
C3959      H3965   1.108       .  S
C3962      H3966   1.107       .  S
C3962      H3967   1.110       .  S
C3962      H3968   1.111       .  S
C3969      C3970   1.398       .  A
C3969      C3974   1.407       .  A
C3969      H3976   1.084       .  S
C3970      C3971   1.411       .  A
C3971      C3972   1.406       .  A
C3971      C3978   1.507       .  S
C3972      C3973   1.410       .  A
C3972      H3977   1.084       .  S
C3973      C3974   1.426       .  A
C3974      C3975   1.509       .  S
C3975      H3979   1.111       .  S
C3975      H3980   1.110       .  S
C3975      H3981   1.110       .  S
C3978      H3982   1.109       .  S
C3978      H3983   1.110   1_556  S
C3978      H3984   1.111   1_556  S
C3985      C3986   1.411       .  A
C3985      C3990   1.413       .  A
C3985      H3992   1.084       .  S
C3986      C3987   1.424       .  A
C3987      C3988   1.417       .  A
C3987      C3994   1.506       .  S
C3988      C3989   1.408       .  A
C3988      H3993   1.084       .  S
C3989      C3990   1.420       .  A
C3990      C3991   1.508       .  S
C3991      H3995   1.111       .  S
C3991      H3996   1.110       .  S
C3991      H3997   1.109       .  S
C3994      H3998   1.107       .  S
C3994      H3999   1.109       .  S
C3994      H4000   1.111   1_655  S
C4001      C4002   1.401       .  A
C4001      C4006   1.400       .  A
C4001      H4008   1.085       .  S
C4002      C4003   1.401       .  A
C4003      C4004   1.403       .  A
C4003      C4010   1.506       .  S
C4004      C4005   1.416       .  A
C4004      H4009   1.083       .  S
C4005      C4006   1.417       .  A
C4006      C4007   1.509       .  S
C4007      H4011   1.111       .  S
C4007      H4012   1.110       .  S
C4007      H4013   1.111       .  S
C4010      H4014   1.110   1_455  S
C4010      H4015   1.110   1_455  S
C4010      H4016   1.111       .  S
C4017      C4018   1.405       .  A
C4017      C4022   1.406       .  A
C4017      H4024   1.082       .  S
C4018      C4019   1.422       .  A
C4019      C4020   1.403       .  A
C4019      C4026   1.505       .  S
C4020      C4021   1.397       .  A
C4020      H4025   1.085       .  S
C4021      C4022   1.414       .  A
C4022      C4023   1.508       .  S
C4023      H4027   1.111       .  S
C4023      H4028   1.110       .  S
C4023      H4029   1.108       .  S
C4026      H4030   1.110       .  S
C4026      H4031   1.105       .  S
C4026      H4032   1.111       .  S
C4033      C4034   1.410       .  A
C4033      C4038   1.413       .  A
C4033      H4040   1.084       .  S
C4034      C4035   1.416       .  A
C4035      C4036   1.412       .  A
C4035      C4042   1.504       .  S
C4036      C4037   1.407       .  A
C4036      H4041   1.085       .  S
C4037      C4038   1.413       .  A
C4038      C4039   1.507       .  S
C4039      H4043   1.111       .  S
C4039      H4044   1.110       .  S
C4039      H4045   1.109       .  S
C4042      H4047   1.111       .  S
C4042      H4048   1.110       .  S
C4049      C4050   1.400       .  A
C4049      C4054   1.404       .  A
C4049      H4056   1.084       .  S
C4050      C4051   1.408       .  A
C4051      C4052   1.407       .  A
C4051      C4058   1.507       .  S
C4052      C4053   1.413       .  A
C4052      H4057   1.083       .  S
C4053      C4054   1.424       .  A
C4054      C4055   1.507       .  S
C4055      H4059   1.111       .  S
C4055      H4060   1.108       .  S
C4055      H4061   1.110       .  S
C4058      H4062   1.110       .  S
C4058      H4063   1.111       .  S
C4058      H4064   1.111       .  S
C4065      C4066   1.407       .  A
C4065      C4070   1.412       .  A
C4065      H4072   1.084       .  S
C4066      C4067   1.415       .  A
C4067      C4068   1.414       .  A
C4067      C4074   1.506       .  S
C4068      C4069   1.408       .  A
C4068      H4073   1.084       .  S
C4069      C4070   1.414       .  A
C4070      C4071   1.506       .  S
C4071      H4075   1.111       .  S
C4071      H4076   1.110       .  S
C4071      H4077   1.110       .  S
C4074      H4078   1.110       .  S
C4074      H4080   1.111       .  S
C4081      C4082   1.411       .  A
C4081      C4086   1.405       .  A
C4081      H4088   1.083       .  S
C4082      C4083   1.424       .  A
C4083      C4084   1.400       .  A
C4083      C4090   1.510       .  S
C4084      C4085   1.396       .  A
C4084      H4089   1.085       .  S
C4085      C4086   1.406       .  A
C4086      C4087   1.506       .  S
C4087      H4091   1.111       .  S
C4087      H4092   1.109       .  S
C4087      H4093   1.110       .  S
C4090      H4094   1.109       .  S
C4090      H4095   1.110       .  S
C4090      H4096   1.111       .  S
C4097      C4098   1.401       .  A
C4097      C4102   1.420       .  A
C4097      H4104   1.084       .  S
C4098      C4099   1.437       .  A
C4099      C4100   1.411       .  A
C4099      C4106   1.508       .  S
C4100      C4101   1.395       .  A
C4100      H4105   1.085       .  S
C4101      C4102   1.432       .  A
C4102      C4103   1.510       .  S
C4103      H4107   1.111       .  S
C4103      H4108   1.105       .  S
C4103      H4109   1.110       .  S
C4106      H4110   1.107       .  S
C4106      H4111   1.095       .  S
C4106      H4112   1.111       .  S
C4113      C4114   1.409       .  A
C4113      C4118   1.403       .  A
C4113      H4120   1.084       .  S
C4114      C4115   1.419       .  A
C4115      C4116   1.407       .  A
C4115      C4122   1.507       .  S
C4116      C4117   1.404       .  A
C4116      H4121   1.084       .  S
C4117      C4118   1.412       .  A
C4118      C4119   1.507       .  S
C4119      H4123   1.111       .  S
C4119      H4124   1.109       .  S
C4119      H4125   1.107       .  S
C4122      H4126   1.110       .  S
C4122      H4127   1.110       .  S
C4122      H4128   1.111       .  S
C4129      C4130   1.397       .  A
C4129      C4134   1.398       .  A
C4129      H4136   1.083       .  S
C4130      C4131   1.404       .  A
C4131      C4132   1.397       .  A
C4131      C4138   1.508       .  S
C4132      C4133   1.410       .  A
C4132      H4137   1.084       .  S
C4133      C4134   1.421       .  A
C4134      C4135   1.510       .  S
C4135      H4139   1.109       .  S
C4135      H4140   1.110       .  S
C4135      H4141   1.110       .  S
C4138      H4142   1.109       .  S
C4138      H4143   1.111       .  S
C4138      H4144   1.111       .  S
C4145      C4146   1.407       .  A
C4145      C4150   1.414       .  A
C4145      H4152   1.083       .  S
C4146      C4147   1.415       .  A
C4147      C4148   1.414       .  A
C4147      C4154   1.506       .  S
C4148      C4149   1.406       .  A
C4148      H4153   1.084       .  S
C4149      C4150   1.414       .  A
C4150      C4151   1.506       .  S
C4151      H4155   1.110       .  S
C4151      H4156   1.110       .  S
C4151      H4157   1.109       .  S
C4154      H4158   1.110       .  S
C4154      H4159   1.109       .  S
C4154      H4160   1.111       .  S
C4161      C4162   1.387       .  A
C4161      C4166   1.393       .  A
C4161      H4168   1.085       .  S
C4162      C4163   1.419       .  A
C4163      C4164   1.399       .  A
C4163      C4170   1.508       .  S
C4164      C4165   1.397       .  A
C4164      H4169   1.084       .  S
C4165      C4166   1.438       .  A
C4166      C4167   1.517       .  S
C4167      H4171   1.111       .  S
C4167      H4172   1.107       .  S
C4167      H4173   1.109       .  S
C4170      H4174   1.107       .  S
C4170      H4175   1.110       .  S
C4170      H4176   1.111       .  S
C4177      C4178   1.411       .  A
C4177      C4182   1.407       .  A
C4177      H4184   1.083       .  S
C4178      C4179   1.424       .  A
C4179      C4180   1.400       .  A
C4179      C4186   1.512       .  S
C4180      C4181   1.398       .  A
C4181      C4182   1.409       .  A
C4182      C4183   1.506       .  S
C4183      H4187   1.111       .  S
C4183      H4188   1.110       .  S
C4183      H4189   1.110       .  S
C4186      H4190   1.110       .  S
C4186      H4191   1.104       .  S
C4186      H4192   1.110       .  S
C4193      C4194   1.411       .  A
C4193      C4198   1.410       .  A
C4193      H4200   1.084       .  S
C4194      C4195   1.422       .  A
C4195      C4196   1.401       .  A
C4195      C4202   1.510       .  S
C4196      C4197   1.399       .  A
C4196      H4201   1.085       .  S
C4197      C4198   1.412       .  A
C4198      C4199   1.507       .  S
C4199      H4203   1.111       .  S
C4199      H4204   1.107       .  S
C4199      H4205   1.110       .  S
C4202      H4206   1.108       .  S
C4202      H4207   1.111       .  S
C4202      H4208   1.111       .  S
C4209      C4210   1.404       .  A
C4209      C4214   1.401       .  A
C4209      H4216   1.084       .  S
C4210      C4211   1.413       .  A
C4211      C4212   1.401       .  A
C4211      C4218   1.509       .  S
C4212      C4213   1.406       .  A
C4212      H4217   1.084       .  S
C4213      C4214   1.416       .  A
C4214      C4215   1.508       .  S
C4215      H4219   1.111       .  S
C4215      H4220   1.110       .  S
C4215      H4221   1.109       .  S
C4218      H4222   1.109       .  S
C4218      H4223   1.110       .  S
C4218      H4224   1.111       .  S
C4225      C4226   1.405       .  A
C4225      C4230   1.414       .  A
C4225      H4232   1.084       .  S
C4226      C4227   1.416       .  A
C4227      C4228   1.411       .  A
C4227      C4234   1.506       .  S
C4228      C4229   1.404       .  A
C4228      H4233   1.084       .  S
C4229      C4230   1.415       .  A
C4230      C4231   1.506       .  S
C4231      H4235   1.111       .  S
C4231      H4236   1.110       .  S
C4231      H4237   1.109       .  S
C4234      H4238   1.110       .  S
C4234      H4239   1.107       .  S
C4234      H4240   1.111       .  S
C4241      C4242   1.399       .  A
C4241      C4246   1.406       .  A
C4241      H4248   1.085       .  S
C4242      C4243   1.412       .  A
C4243      C4244   1.395       .  A
C4243      C4250   1.498       .  S
C4244      C4245   1.401       .  A
C4244      H4249   1.084       .  S
C4245      C4246   1.426       .  A
C4246      C4247   1.509       .  S
C4247      H4251   1.111       .  S
C4247      H4252   1.108       .  S
C4247      H4253   1.110       .  S
C4250      H4254   1.109       .  S
C4250      H4255   1.104       .  S
C4250      H4256   1.111       .  S
C4257      C4258   1.411       .  A
C4257      C4262   1.404       .  A
C4257      H4264   1.085       .  S
C4258      C4259   1.404       .  A
C4259      C4260   1.402       .  A
C4259      C4266   1.508       .  S
C4260      C4261   1.410       .  A
C4260      H4265   1.083       .  S
C4261      C4262   1.407       .  A
C4262      C4263   1.506       .  S
C4263      H4267   1.111       .  S
C4263      H4268   1.110       .  S
C4263      H4269   1.111       .  S
C4266      H4270   1.110       .  S
C4266      H4271   1.110       .  S
C4266      H4272   1.111       .  S
C4273      C4278   1.411       .  A
C4273      H4280   1.084       .  S
C4274      C4275   1.424       .  A
C4275      C4276   1.415   1_556  A
C4275      C4282   1.506       .  S
C4276      H4281   1.083       .  S
C4277      C4278   1.416       .  A
C4278      C4279   1.508       .  S
C4279      H4283   1.111       .  S
C4279      H4284   1.110       .  S
C4279      H4285   1.109       .  S
C4282      H4286   1.106       .  S
C4282      H4287   1.110       .  S
C4282      H4288   1.111       .  S
C4289      C4290   1.404       .  A
C4289      C4294   1.395       .  A
C4289      H4296   1.082       .  S
C4290      C4291   1.420       .  A
C4291      C4292   1.408       .  A
C4291      C4298   1.508       .  S
C4292      C4293   1.403       .  A
C4292      H4297   1.084       .  S
C4293      C4294   1.413       .  A
C4294      C4295   1.509       .  S
C4295      H4299   1.111       .  S
C4295      H4300   1.107       .  S
C4295      H4301   1.109       .  S
C4298      H4302   1.111       .  S
C4298      H4303   1.109       .  S
C4298      H4304   1.111       .  S
C4305      C4306   1.404       .  A
C4305      C4310   1.396       .  A
C4305      H4312   1.082       .  S
C4306      C4307   1.422       .  A
C4307      C4308   1.407       .  A
C4307      C4314   1.508       .  S
C4308      C4309   1.400       .  A
C4308      H4313   1.084       .  S
C4309      C4310   1.412       .  A
C4310      C4311   1.509       .  S
C4311      H4315   1.111       .  S
C4311      H4316   1.108       .  S
C4311      H4317   1.109       .  S
C4314      H4318   1.109       .  S
C4314      H4319   1.109       .  S
C4314      H4320   1.111       .  S
C4321      C4322   1.390       .  A
C4321      C4326   1.399       .  A
C4321      H4328   1.085       .  S
C4322      C4323   1.414       .  A
C4323      C4324   1.399       .  A
C4323      C4330   1.500       .  S
C4324      C4325   1.399       .  A
C4324      H4329   1.085       .  S
C4325      C4326   1.427       .  A
C4326      C4327   1.507       .  S
C4327      H4331   1.110       .  S
C4327      H4332   1.101       .  S
C4327      H4333   1.108       .  S
C4330      H4334   1.107       .  S
C4330      H4335   1.109       .  S
C4330      H4336   1.110       .  S
C4337      C4338   1.400       .  A
C4337      C4342   1.401       .  A
C4337      H4344   1.082       .  S
C4338      C4339   1.410       .  A
C4339      C4340   1.405       .  A
C4339      C4346   1.505       .  S
C4340      C4341   1.410       .  A
C4340      H4345   1.084       .  S
C4341      C4342   1.421       .  A
C4342      C4343   1.511       .  S
C4343      H4347   1.107       .  S
C4343      H4348   1.111       .  S
C4343      H4349   1.107       .  S
C4346      H4351   1.110       .  S
C4346      H4352   1.110       .  S
C4353      C4354   1.405       .  A
C4353      C4358   1.409       .  A
C4353      H4360   1.084       .  S
C4354      C4355   1.413       .  A
C4355      C4356   1.410       .  A
C4355      C4362   1.504       .  S
C4356      C4357   1.405       .  A
C4356      H4361   1.084       .  S
C4357      C4358   1.413       .  A
C4359      H4363   1.111   1_556  S
C4359      H4364   1.110       .  S
C4359      H4365   1.110       .  S
C4362      H4366   1.110       .  S
C4362      H4367   1.107       .  S
C4362      H4368   1.111       .  S
C4369      C4370   1.404       .  A
C4369      C4374   1.405       .  A
C4369      H4376   1.083       .  S
C4370      C4371   1.405       .  A
C4371      C4372   1.401       .  A
C4371      C4378   1.501       .  S
C4372      C4373   1.405       .  A
C4372      H4377   1.084       .  S
C4373      C4374   1.412       .  A
C4374      C4375   1.507       .  S
C4375      H4379   1.111       .  S
C4375      H4380   1.110       .  S
C4375      H4381   1.109       .  S
C4378      H4382   1.109       .  S
C4378      H4383   1.108       .  S
C4378      H4384   1.110       .  S
C4385      C4386   1.395       .  A
C4385      C4390   1.398       .  A
C4385      H4392   1.082       .  S
C4386      C4387   1.407       .  A
C4387      C4388   1.405       .  A
C4387      C4394   1.506       .  S
C4388      C4389   1.411       .  A
C4388      H4393   1.084       .  S
C4389      C4390   1.425       .  A
C4390      C4391   1.511       .  S
C4391      H4395   1.111       .  S
C4391      H4396   1.110       .  S
C4391      H4397   1.107       .  S
C4394      H4398   1.111       .  S
C4394      H4399   1.107       .  S
C4394      H4400   1.111       .  S
C4401      C4402   1.402       .  A
C4401      C4406   1.404       .  A
C4401      H4408   1.085       .  S
C4402      C4403   1.413       .  A
C4403      C4404   1.414       .  A
C4403      C4410   1.505       .  S
C4404      C4405   1.406       .  A
C4404      H4409   1.084       .  S
C4405      C4406   1.413       .  A
C4407      H4411   1.111       .  S
C4407      H4412   1.110       .  S
C4407      H4413   1.110       .  S
C4410      H4414   1.110       .  S
C4410      H4415   1.107       .  S
C4410      H4416   1.111       .  S
C4417      C4418   1.395       .  A
C4417      C4422   1.396       .  A
C4417      H4424   1.086       .  S
C4418      C4419   1.410       .  A
C4419      C4420   1.405       .  A
C4419      C4426   1.505       .  S
C4420      C4421   1.405       .  A
C4420      H4425   1.084       .  S
C4421      C4422   1.424       .  A
C4422      C4423   1.513       .  S
C4423      H4427   1.110       .  S
C4423      H4428   1.108       .  S
C4423      H4429   1.110       .  S
C4426      H4430   1.110       .  S
C4426      H4431   1.107       .  S
C4426      H4432   1.111       .  S
C4433      C4434   1.408       .  A
C4433      C4438   1.396       .  A
C4433      H4440   1.084       .  S
C4434      C4435   1.416       .  A
C4435      C4436   1.409       .  A
C4435      C4442   1.506       .  S
C4436      C4437   1.406       .  A
C4436      H4441   1.085       .  S
C4437      C4438   1.408       .  A
C4439      H4443   1.110       .  S
C4439      H4444   1.110       .  S
C4439      H4445   1.111       .  S
C4442      H4446   1.109       .  S
C4442      H4447   1.110       .  S
C4442      H4448   1.110       .  S
C4449      C4450   1.405       .  A
C4449      C4454   1.405       .  A
C4449      H4456   1.080       .  S
C4450      C4451   1.411       .  A
C4451      C4452   1.415       .  A
C4451      C4458   1.505       .  S
C4452      C4453   1.417       .  A
C4452      H4457   1.084       .  S
C4453      C4454   1.419       .  A
C4454      C4455   1.508       .  S
C4455      H4459   1.111       .  S
C4455      H4460   1.110       .  S
C4455      H4461   1.106       .  S
C4458      H4462   1.110       .  S
C4458      H4463   1.110       .  S
C4458      H4464   1.111       .  S
C4465      C4466   1.405       .  A
C4465      C4470   1.402       .  A
C4465      H4472   1.084       .  S
C4466      C4467   1.422       .  A
C4467      C4468   1.401       .  A
C4467      C4474   1.509       .  S
C4468      C4469   1.398       .  A
C4468      H4473   1.085       .  S
C4469      C4470   1.412       .  A
C4470      C4471   1.505       .  S
C4471      H4475   1.111       .  S
C4471      H4476   1.110       .  S
C4471      H4477   1.110       .  S
C4474      H4478   1.110       .  S
C4474      H4479   1.108       .  S
C4474      H4480   1.111       .  S
