geometry optimzed in LAMMPS
_audit_creation_date              2020-11-30 
_audit_creation_method            'lammps2cif' 
_symmetry_space_group_name_H-M    'P1' 
_symmetry_Int_Tables_number       1 
_symmetry_cell_setting            triclinic 
loop_ 
_symmetry_equiv_pos_as_xyz 
  x,y,z 
_cell_length_a                    29.32562919952214 
_cell_length_b                    29.26321070651345 
_cell_length_c                    54.54916801895141 
_cell_angle_alpha                 90.60715673110582 
_cell_angle_beta                  89.82348180347189 
_cell_angle_gamma                 89.12140751635367 
loop_ 
_atom_site_label 
_atom_site_type_symbol 
_atom_site_fract_x 
_atom_site_fract_y 
_atom_site_fract_z 
_atom_site_charge 
Zr1        Zr  0.92805775  0.41858615  0.72433681     2.17510
O2          O  0.89195928  0.37465766  0.69173148    -0.52460
O3          O  0.88497744  0.39319679  0.75977621    -0.75660
O4          O  0.95037190  0.33683741  0.72642256    -0.82440
O5          O  0.85910622  0.52586217  0.70710694    -0.84190
O6          O  0.01912810  0.33258624  0.74555062    -0.79810
O7          O  0.85426249  0.44837851  0.70844572    -0.91450
O8          O  0.87552119  0.45722329  0.78258976    -0.77410
O9          O  0.96615515  0.41700390  0.76304498    -0.86900
O10         O  0.91094571  0.48969817  0.74441806    -0.86590
O11         O  0.00842422  0.41027372  0.71498810    -0.73350
O12         O  0.95753798  0.47654069  0.69744257    -0.85480
Zr13       Zr  0.06151220  0.53379605  0.75174634     2.26420
Zr14       Zr  0.04564846  0.40751649  0.75416078     2.06270
Zr15       Zr  0.93956897  0.54671546  0.71832287     2.10050
Zr16       Zr  0.94981566  0.48846751  0.78288916     1.78760
O17         O  0.94160243  0.58584943  0.67915959    -0.94290
O18         O  0.95240789  0.44005046  0.81896838    -0.42100
O19         O  0.97905972  0.54503707  0.75722908    -0.78730
O20         O  0.03005243  0.47605697  0.77681905    -0.97420
O21         O  0.07713766  0.46527179  0.72957322    -0.90720
O22         O  0.02185409  0.53970981  0.71188178    -0.93560
C23         C  0.86819610  0.41543774  0.77814887     1.00190
C24         C  0.83634188  0.48833289  0.70443400     1.13120
C25         C  0.98501382  0.31441826  0.73503335     1.03900
O26         O  0.04603161  0.36802644  0.79324777    -0.95720
O27         O  0.11674114  0.42408722  0.77464133    -0.91460
O28         O  0.12506082  0.50111152  0.77545465    -0.84610
C29         C  0.13781613  0.46031590  0.78109392     1.10540
O30         O  0.01083071  0.43510133  0.65350113    -0.97690
Zr31       Zr  0.03942100  0.47050898  0.69103938     1.88940
O32         O  0.12742686  0.54406932  0.72615331    -0.74340
O33         O  0.10802347  0.36230693  0.73621212    -0.53600
O34         O  0.08884140  0.40674501  0.67838701    -0.98280
O35         O  0.04157329  0.52226613  0.65615921    -0.55500
O36         O  0.11666271  0.50169609  0.69146822    -0.74860
C37         C  0.14118042  0.52648716  0.70579791     0.97490
O38         O  0.07301459  0.57746299  0.78970210    -0.63680
O39         O  0.89397744  0.61334596  0.73072254    -0.58480
O40         O  0.05975865  0.61579539  0.75275895    -0.95160
O41         O  0.00118959  0.58443443  0.73791749    -0.93590
O42         O  0.90298341  0.55436398  0.79504798    -0.93940
O43         O  0.97211573  0.52924798  0.82007815    -0.92730
C44         C  0.02015734  0.62105980  0.74434088     1.16330
H45         H  0.87879390  0.49560699  0.74666126     0.32270
H46         H  0.04500251  0.47500299  0.79259266     0.43130
H47         H  0.03374115  0.56350213  0.70181530     0.36650
H48         H  0.01401374  0.38226030  0.70589277     0.33130
H49         H  0.92155521  0.44272108  0.82631347     0.24920
H50         H  0.11192165  0.33585142  0.74722437     0.30860
H51         H  0.11149634  0.42023513  0.66719181     0.36770
H52         H  0.87944210  0.54189796  0.80606815     0.31230
H53         H  0.87161267  0.61773016  0.71736455     0.30100
H54         H  0.90930630  0.59356193  0.67564238     0.31780
H55         H  0.06509564  0.50895005  0.64502293     0.30750
H56         H  0.00429633  0.52019721  0.82296624     0.34750
H57         H  0.04192147  0.58637797  0.79528924     0.27480
H58         H  0.87597551  0.34963360  0.70010373     0.31720
H59         H  0.03725754  0.43167997  0.64225513     0.34570
H60         H  0.87564614  0.60267722  0.74476238     0.27180
H61         H  0.08329245  0.55528130  0.80217500     0.40050
H62         H  0.01543613  0.35441222  0.79456762     0.30100
H63         H  0.95442404  0.40839608  0.81246758     0.37720
H64         H  0.05548325  0.55076833  0.66225007     0.29570
H65         H  0.09559389  0.34921860  0.72085876     0.29630
H66         H  0.91741956  0.35943475  0.68271657     0.29900
Zr67       Zr  0.05398250  0.01308231  0.72958394     2.17510
O68         O  0.09522129  0.05963515  0.70034252    -0.52460
O69         O  0.10338764  0.02279908  0.76535885    -0.75660
O70         O  0.03359734  0.09524560  0.73357053    -0.82440
O71         O  0.11828331  0.90887291  0.70441294    -0.84190
O72         O  0.96201633  0.10085363  0.74957483    -0.79810
O73         O  0.12804849  0.98391071  0.71385040    -0.91450
O74         O  0.09976934  0.95874044  0.78829540    -0.77410
O75         O  0.01295817  0.01280492  0.76749943    -0.86900
O76         O  0.06516819  0.93884741  0.74610770    -0.86590
O77         O  0.97487915  0.02532459  0.71847598    -0.73350
O78         O  0.02378337  0.96148673  0.69884258    -0.85480
Zr79       Zr  0.91708349  0.90067234  0.74751058     2.26420
Zr80       Zr  0.93465025  0.02588586  0.75687350     2.06270
Zr81       Zr  0.03762152  0.88828059  0.71594749     2.10050
Zr82       Zr  0.02341367  0.93789286  0.78385765     1.78760
O83         O  0.03170140  0.86347054  0.67337360    -0.94290
O84         O  0.01757867  0.99025479  0.81888985    -0.42100
O85         O  0.99670682  0.88522327  0.75438898    -0.78730
O86         O  0.94562152  0.95413232  0.77638007    -0.97420
O87         O  0.90341283  0.97223462  0.72899745    -0.90720
O88         O  0.95722291  0.89844109  0.70883150    -0.93560
C89         C  0.11671920  0.99689735  0.78300738     1.00190
C90         C  0.14357593  0.94494315  0.70593110     1.13120
C91         C  0.99777115  0.11834731  0.74044249     1.03900
O92         O  0.93392206  0.06472232  0.79659002    -0.95720
O93         O  0.86353411  0.00679339  0.77657218    -0.91460
O94         O  0.85413567  0.92984270  0.77384664    -0.84610
C95         C  0.84209518  0.97013743  0.78149331     1.10540
O96         O  0.97339150  0.00927148  0.65529359    -0.97690
Zr97       Zr  0.94266555  0.97025894  0.69091461     1.88940
O98         O  0.85125798  0.89642285  0.72206432    -0.74340
O99         O  0.87222888  0.07226045  0.74059336    -0.53600
O100        O  0.89617759  0.03696812  0.68048181    -0.98280
O101        O  0.94277865  0.92126550  0.65433150    -0.55500
O102        O  0.86406931  0.94151430  0.68910981    -0.74860
C103        C  0.83846518  0.91623642  0.70245960     0.97490
O104        O  0.89733474  0.84627786  0.77943041    -0.63680
O105        O  0.09040785  0.82413139  0.72172844    -0.58480
O106        O  0.92730666  0.82251028  0.73586000    -0.95160
O107        O  0.00388678  0.81738029  0.72822103    -0.93590
O108        O  0.06583648  0.87410934  0.80154539    -0.93940
O109        O  0.98731333  0.89223114  0.81545313    -0.92730
C110        C  0.96487072  0.80050726  0.73323485     1.16330
H111        H  0.09695681  0.93113468  0.74835539     0.32270
H112        H  0.92959617  0.95325900  0.79187927     0.43130
H113        H  0.94589043  0.87402963  0.69859998     0.36650
H114        H  0.97121640  0.05421814  0.71029441     0.33130
H115        H  0.03288906  0.97395625  0.83246274     0.24920
H116        H  0.86884951  0.09830876  0.75222639     0.30860
H117        H  0.87317823  0.02540516  0.66879697     0.36770
H118        H  0.07993329  0.88672615  0.81660105     0.31230
H119        H  0.10611715  0.81974017  0.70576341     0.30100
H120        H  0.02142950  0.83145088  0.67431106     0.31780
H121        H  0.91981248  0.93532741  0.64335826     0.30750
H122        H  0.96868200  0.91403377  0.82540390     0.34750
H123        H  0.92576024  0.82859342  0.78251792     0.27480
H124        H  0.11044985  0.08342728  0.71027778     0.31720
H125        H  0.94789670  0.01257826  0.64355331     0.34570
H126        H  0.11410512  0.83575561  0.73297945     0.27180
H127        H  0.89317759  0.86469944  0.79462881     0.40050
H128        H  0.96599760  0.07333092  0.79946275     0.30100
H129        H  0.03799626  0.01586763  0.81508333     0.37720
H130        H  0.92867999  0.89228142  0.65929395     0.29570
H131        H  0.88444314  0.08581533  0.72541767     0.29630
H132        H  0.07139843  0.07622541  0.69099512     0.29900
Zr133      Zr  0.54932107  0.42065698  0.65534189     2.17510
O134        O  0.58964166  0.37406248  0.68535268    -0.52460
O135        O  0.60158362  0.41234259  0.62008252    -0.75660
O136        O  0.53164526  0.33814584  0.65097965    -0.82440
O137        O  0.61322162  0.52512740  0.67782634    -0.84190
O138        O  0.45785870  0.33463127  0.63887556    -0.79810
O139        O  0.62242301  0.44881508  0.67137931    -0.91450
O140        O  0.59514661  0.47569416  0.59660993    -0.77410
O141        O  0.50859367  0.41985921  0.61743429    -0.86900
O142        O  0.55966319  0.49378650  0.63781030    -0.86590
O143        O  0.47006265  0.41089095  0.66666135    -0.73350
O144        O  0.51829312  0.47461148  0.68542739    -0.85480
Zr145      Zr  0.40881013  0.53631096  0.63474372     2.26420
Zr146      Zr  0.43039216  0.40909654  0.62816290     2.06270
Zr147      Zr  0.53189322  0.54655996  0.66715547     2.10050
Zr148      Zr  0.51769502  0.49383275  0.60001676     1.78760
O149        O  0.52714700  0.58301080  0.70739326    -0.94290
O150        O  0.51955232  0.43950285  0.56573321    -0.42100
O151        O  0.49014949  0.54759639  0.62888074    -0.78730
O152        O  0.43942926  0.47958086  0.60714075    -0.97420
O153        O  0.39759108  0.46557051  0.65487102    -0.90720
O154        O  0.45031279  0.53973625  0.67381036    -0.93560
C155        C  0.61441569  0.43848569  0.60248728     1.00190
C156        C  0.63836078  0.48812535  0.67766282     1.13120
C157        C  0.49496476  0.31589840  0.64597298     1.03900
O158        O  0.43614910  0.38611490  0.58520645    -0.95720
O159        O  0.35139245  0.43257053  0.62417126    -0.91460
O160        O  0.35081406  0.50165673  0.60752091    -0.84610
C161        C  0.33719904  0.46016492  0.60783937     1.10540
O162        O  0.46380313  0.43342598  0.73045062    -0.97690
Zr163      Zr  0.43675220  0.46896428  0.69282627     1.88940
O164        O  0.34455818  0.54525668  0.66161390    -0.74340
O165        O  0.37196067  0.35050384  0.63028838    -0.53600
O166        O  0.39174047  0.40300174  0.70403871    -0.98280
O167        O  0.43623284  0.52014525  0.72846706    -0.55500
O168        O  0.35786891  0.49916970  0.69424126    -0.74860
C169        C  0.33208703  0.52557732  0.68128511     0.97490
O170        O  0.38895044  0.58859906  0.60164642    -0.63680
O171        O  0.58340816  0.61007620  0.66140668    -0.58480
O172        O  0.41351794  0.61832832  0.63386095    -0.95160
O173        O  0.47825663  0.59857400  0.64914481    -0.93590
O174        O  0.55349413  0.56206486  0.58410065    -0.93940
O175        O  0.48331778  0.53275152  0.56511007    -0.92730
C176        C  0.45342227  0.62936908  0.63971691     1.16330
H177        H  0.59133038  0.50128012  0.63583814     0.32270
H178        H  0.42407324  0.47892585  0.59147923     0.43130
H179        H  0.43842008  0.56437542  0.68404042     0.36650
H180        H  0.46680092  0.38272017  0.67549742     0.33130
H181        H  0.53646359  0.45508050  0.55258212     0.24920
H182        H  0.38232179  0.32463043  0.61971267     0.30860
H183        H  0.36738501  0.41542391  0.71494007     0.36770
H184        H  0.57386660  0.55093137  0.57072851     0.31230
H185        H  0.59960193  0.61382113  0.67718110     0.30100
H186        H  0.51359139  0.61356594  0.70419116     0.31780
H187        H  0.41522906  0.54572484  0.72437217     0.30750
H188        H  0.46378967  0.50992253  0.55693057     0.34750
H189        H  0.40591727  0.57658507  0.58715848     0.27480
H190        H  0.60639867  0.35032030  0.67571268     0.31720
H191        H  0.43779013  0.43491092  0.74207307     0.34570
H192        H  0.60693263  0.59845841  0.64975187     0.27180
H193        H  0.35644414  0.58381601  0.59772607     0.40050
H194        H  0.44786393  0.35421829  0.58558469     0.30100
H195        H  0.54006838  0.41419443  0.57083022     0.37720
H196        H  0.46688042  0.53376468  0.72874320     0.29570
H197        H  0.37267151  0.33882532  0.64726322     0.29630
H198        H  0.56561325  0.35741997  0.69421206     0.29900
Zr199      Zr  0.42897301  0.01372117  0.65546781     2.17510
O200        O  0.38676057  0.06268317  0.68431091    -0.52460
O201        O  0.37814869  0.02156348  0.61981706    -0.75660
O202        O  0.44887151  0.09598618  0.65158213    -0.82440
O203        O  0.36537146  0.90868633  0.67654393    -0.84190
O204        O  0.52027162  0.09969370  0.63545841    -0.79810
O205        O  0.35665376  0.98567285  0.67332095    -0.91450
O206        O  0.38424340  0.95724177  0.59635836    -0.77410
O207        O  0.47035221  0.01275070  0.61759468    -0.86900
O208        O  0.41907395  0.93981142  0.63786020    -0.86590
O209        O  0.50815933  0.02405814  0.66649999    -0.73350
O210        O  0.46032095  0.96106800  0.68543646    -0.85480
Zr211      Zr  0.57016830  0.89776252  0.63472518     2.26420
Zr212      Zr  0.54861398  0.02416565  0.62817082     2.06270
Zr213      Zr  0.44727765  0.88825579  0.66717968     2.10050
Zr214      Zr  0.46151103  0.93824301  0.60009973     1.78760
O215        O  0.45209874  0.85665283  0.70819531    -0.94290
O216        O  0.46324488  0.99196508  0.56618726    -0.42100
O217        O  0.48903527  0.88550375  0.62884777    -0.78730
O218        O  0.53962411  0.95287442  0.60740521    -0.97420
O219        O  0.58145114  0.96913583  0.65464384    -0.90720
O220        O  0.52863334  0.89576307  0.67385284    -0.93560
C221        C  0.36572093  0.99522429  0.60196859     1.00190
C222        C  0.34069678  0.94579553  0.67816917     1.13120
C223        C  0.48434943  0.11832762  0.64451884     1.03900
O224        O  0.54885667  0.06218370  0.58866962    -0.95720
O225        O  0.62049965  0.00701505  0.60828242    -0.91460
O226        O  0.63376523  0.93044791  0.61083946    -0.84610
C227        C  0.64408223  0.97080579  0.60351159     1.10540
O228        O  0.51366897  0.00240209  0.73073564    -0.97690
Zr229      Zr  0.54179019  0.96747234  0.69267248     1.88940
O230        O  0.63382053  0.88859451  0.66168484    -0.74340
O231        O  0.60916138  0.06949531  0.64627216    -0.53600
O232        O  0.58460051  0.03490876  0.70447956    -0.98280
O233        O  0.54555920  0.91718125  0.72807618    -0.55500
O234        O  0.62153697  0.94006157  0.69266479    -0.74860
C235        C  0.64701801  0.91189486  0.68023172     0.97490
O236        O  0.58751894  0.84991333  0.59863252    -0.63680
O237        O  0.39816427  0.82221374  0.66350039    -0.58480
O238        O  0.56680193  0.81563661  0.63457779    -0.95160
O239        O  0.50142549  0.83559128  0.64938771    -0.93590
O240        O  0.42423064  0.87106681  0.58323989    -0.93940
O241        O  0.49635116  0.89656624  0.56566964    -0.92730
C242        C  0.52669206  0.80462026  0.64004124     1.16330
H243        H  0.38744256  0.93243024  0.63567336     0.32270
H244        H  0.55571303  0.95249059  0.59190390     0.43130
H245        H  0.54057712  0.87157581  0.68408321     0.36650
H246        H  0.51149543  0.05290207  0.67499447     0.33130
H247        H  0.44836356  0.97589475  0.55237598     0.24920
H248        H  0.61370112  0.09494176  0.63473489     0.30860
H249        H  0.60989774  0.02317058  0.71474507     0.36770
H250        H  0.40537394  0.88257315  0.56951649     0.31230
H251        H  0.38192245  0.82022664  0.67938169     0.30100
H252        H  0.46751095  0.82658064  0.70578321     0.31780
H253        H  0.56734092  0.89229105  0.72357274     0.30750
H254        H  0.51696457  0.91837730  0.55765173     0.34750
H255        H  0.55745078  0.84292056  0.59137762     0.27480
H256        H  0.37154463  0.08631573  0.67421305     0.31720
H257        H  0.53981084  0.00227287  0.74219350     0.34570
H258        H  0.37438857  0.83124047  0.65155787     0.27180
H259        H  0.60171495  0.86976292  0.58627752     0.40050
H260        H  0.51661099  0.07096262  0.58573743     0.30100
H261        H  0.44169683  0.01702027  0.57073446     0.37720
H262        H  0.51549882  0.90240686  0.72878945     0.29570
H263        H  0.59544254  0.08407949  0.66105990     0.29630
H264        H  0.41024089  0.07919894  0.69376311     0.29900
Zr265      Zr  0.69596923  0.27479852  0.48086051     2.17510
O266        O  0.64783290  0.31613698  0.45192083    -0.52460
O267        O  0.68752147  0.32699185  0.51626931    -0.75660
O268        O  0.61386955  0.25529340  0.48489753    -0.82440
O269        O  0.80094602  0.33924780  0.45918015    -0.84190
O270        O  0.60967350  0.18324422  0.49980874    -0.79810
O271        O  0.72421487  0.34684247  0.46385937    -0.91450
O272        O  0.75045303  0.32007984  0.54015479    -0.77410
O273        O  0.69603198  0.23325349  0.51832739    -0.86900
O274        O  0.76907944  0.28548213  0.49852892    -0.86590
O275        O  0.68609682  0.19576952  0.46904030    -0.73350
O276        O  0.75017044  0.24483285  0.45083736    -0.85480
Zr277      Zr  0.81229584  0.13356036  0.50024143     2.26420
Zr278      Zr  0.68530907  0.15493022  0.50691650     2.06270
Zr279      Zr  0.82245986  0.25796854  0.46939640     2.10050
Zr280      Zr  0.76980153  0.24274892  0.53591444     1.78760
O281        O  0.86208059  0.25899589  0.43012241    -0.94290
O282        O  0.71618278  0.24335715  0.57024788    -0.42100
O283        O  0.82353719  0.21531445  0.50723086    -0.78730
O284        O  0.75609686  0.16436906  0.52767314    -0.97420
O285        O  0.74139070  0.12262779  0.48010954    -0.90720
O286        O  0.81471873  0.17616140  0.46119808    -0.93560
C287        C  0.71343394  0.33956466  0.53413442     1.00190
C288        C  0.76346103  0.36347637  0.45837027     1.13120
C289        C  0.59127603  0.21967362  0.49143448     1.03900
O290        O  0.64504686  0.15435912  0.54603221    -0.95720
O291        O  0.70254746  0.08410044  0.52729163    -0.91460
O292        O  0.77904278  0.07071148  0.52444156    -0.84610
C293        C  0.73868590  0.06083927  0.53210787     1.10540
O294        O  0.70557751  0.19081592  0.40566292    -0.97690
Zr295      Zr  0.74357636  0.16331581  0.44253251     1.88940
O296        O  0.82202436  0.07082588  0.47202571    -0.74340
O297        O  0.64174507  0.09373041  0.48803816    -0.53600
O298        O  0.67842749  0.11756533  0.43050281    -0.98280
O299        O  0.79332072  0.16636093  0.40662601    -0.55500
O300        O  0.77421820  0.08452858  0.44006465    -0.74860
C301        C  0.80150368  0.05859214  0.45241410     0.97490
O302        O  0.86016289  0.11717625  0.53590947    -0.63680
O303        O  0.88719347  0.30259003  0.48313390    -0.58480
O304        O  0.89511751  0.13538649  0.49963827    -0.95160
O305        O  0.86227560  0.19387929  0.48543588    -0.93590
O306        O  0.83802587  0.27943821  0.55151562    -0.93940
O307        O  0.80878051  0.20861539  0.57087580    -0.92730
C308        C  0.89939701  0.17531242  0.49164710     1.16330
H309        H  0.77617308  0.31728408  0.50082401     0.32270
H310        H  0.75614917  0.14847164  0.54311828     0.43130
H311        H  0.83722026  0.16394218  0.44975180     0.36650
H312        H  0.65752404  0.19238759  0.46051143     0.33130
H313        H  0.73149645  0.26083974  0.58341095     0.24920
H314        H  0.61627199  0.08843057  0.49957045     0.30860
H315        H  0.69111737  0.09361125  0.41936244     0.36770
H316        H  0.82717754  0.29963737  0.56507798     0.31230
H317        H  0.89184017  0.32554018  0.47019472     0.30100
H318        H  0.86917481  0.29156441  0.42752851     0.31780
H319        H  0.81642970  0.14173661  0.40879480     0.30750
H320        H  0.78689735  0.18712625  0.57813583     0.34750
H321        H  0.86686805  0.14755353  0.54313036     0.27480
H322        H  0.62418706  0.33199358  0.46199969     0.31720
H323        H  0.70832165  0.16572080  0.39339053     0.34570
H324        H  0.87535575  0.32044637  0.49736877     0.27180
H325        H  0.84040173  0.10307191  0.54836593     0.40050
H326        H  0.63879896  0.18695262  0.55000644     0.30100
H327        H  0.69035777  0.26326069  0.56520324     0.37720
H328        H  0.81034888  0.19509755  0.40858043     0.29570
H329        H  0.62713326  0.10760770  0.47350796     0.29630
H330        H  0.63134449  0.29232075  0.44262825     0.29900
Zr331      Zr  0.28886113  0.15764225  0.47970576     2.17510
O332        O  0.33698542  0.11548879  0.45047511    -0.52460
O333        O  0.29652396  0.10606031  0.51481191    -0.75660
O334        O  0.37110574  0.17585999  0.48469201    -0.82440
O335        O  0.18328034  0.09434256  0.45751459    -0.84190
O336        O  0.37471603  0.25161661  0.49365391    -0.79810
O337        O  0.25982579  0.08567903  0.46224150    -0.91450
O338        O  0.23394610  0.11475387  0.53915474    -0.77410
O339        O  0.28818215  0.19938960  0.51756445    -0.86900
O340        O  0.21538898  0.14866594  0.49751741    -0.86590
O341        O  0.29992806  0.23613051  0.46773311    -0.73350
O342        O  0.23534681  0.18746144  0.44986869    -0.85480
Zr343      Zr  0.17322206  0.29853713  0.49841651     2.26420
Zr344      Zr  0.30015992  0.27681423  0.50636455     2.06270
Zr345      Zr  0.16298091  0.17581916  0.46843423     2.10050
Zr346      Zr  0.21374607  0.19192909  0.53498661     1.78760
O347        O  0.13432605  0.17484965  0.42663872    -0.94290
O348        O  0.26425911  0.19085769  0.57047758    -0.42100
O349        O  0.16020765  0.21918889  0.50627241    -0.78730
O350        O  0.22849360  0.26965734  0.52681806    -0.97420
O351        O  0.24512282  0.30844058  0.47901875    -0.90720
O352        O  0.17131145  0.25598528  0.46019347    -0.93560
C353        C  0.27069595  0.09452940  0.53287247     1.00190
C354        C  0.22038512  0.06959557  0.45660360     1.13120
C355        C  0.39349608  0.21315809  0.48829053     1.03900
O356        O  0.32072709  0.26079115  0.54866645    -0.95720
O357        O  0.27682547  0.35650025  0.50984642    -0.91460
O358        O  0.20615050  0.35864585  0.52512941    -0.84610
C359        C  0.24777073  0.37175802  0.52549018     1.10540
O360        O  0.27581528  0.23530340  0.40377160    -0.97690
Zr361      Zr  0.24278187  0.26804616  0.44124138     1.88940
O362        O  0.16547347  0.36185496  0.47113926    -0.74340
O363        O  0.35854607  0.33467799  0.51202591    -0.53600
O364        O  0.31014361  0.30950332  0.42849749    -0.98280
O365        O  0.19146888  0.27152682  0.40611321    -0.55500
O366        O  0.21706852  0.34833347  0.44052979    -0.74860
C367        C  0.18874954  0.37414450  0.45257754     0.97490
O368        O  0.11723533  0.32397108  0.52931000    -0.63680
O369        O  0.10244619  0.12384189  0.47987740    -0.58480
O370        O  0.09331160  0.28419828  0.49217344    -0.95160
O371        O  0.09068666  0.20960231  0.47949460    -0.93590
O372        O  0.14540220  0.15430549  0.54950698    -0.93940
O373        O  0.17357330  0.22870669  0.56933108    -0.92730
C374        C  0.07245436  0.24727019  0.48694929     1.16330
H375        H  0.20796942  0.11699105  0.49971173     0.32270
H376        H  0.22842721  0.28619861  0.54225085     0.43130
H377        H  0.14655696  0.26701209  0.45008511     0.36650
H378        H  0.32807430  0.23860752  0.45867180     0.33130
H379        H  0.24806591  0.17269300  0.58289440     0.24920
H380        H  0.38286193  0.32042009  0.52206272     0.30860
H381        H  0.29858336  0.33293539  0.41701240     0.36770
H382        H  0.15549315  0.13644471  0.56388851     0.31230
H383        H  0.09513568  0.10658821  0.46471340     0.30100
H384        H  0.10161608  0.18325389  0.42830348     0.31780
H385        H  0.16757718  0.29445869  0.41051080     0.30750
H386        H  0.19574960  0.24951666  0.57706853     0.34750
H387        H  0.10760739  0.29558758  0.53747666     0.27480
H388        H  0.36010846  0.09927075  0.46047845     0.31720
H389        H  0.27625651  0.26044422  0.39176001     0.34570
H390        H  0.11709344  0.10114525  0.49078346     0.27180
H391        H  0.13369816  0.34057964  0.54236088     0.40050
H392        H  0.35299235  0.25040845  0.54781930     0.30100
H393        H  0.29077802  0.17148853  0.56556433     0.37720
H394        H  0.17559627  0.24195260  0.40593241     0.29570
H395        H  0.37245732  0.33910953  0.49566603     0.29630
H396        H  0.35411663  0.13905737  0.44155880     0.29900
Zr397      Zr  0.28893535  0.77996915  0.40838145     2.17510
O398        O  0.33267817  0.82108444  0.43924965    -0.52460
O399        O  0.31220310  0.82124865  0.37211716    -0.75660
O400        O  0.37037899  0.75779640  0.40725673    -0.82440
O401        O  0.18250348  0.84751058  0.42881251    -0.84190
O402        O  0.37582498  0.68945126  0.38720186    -0.79810
O403        O  0.25911350  0.85388111  0.42385209    -0.91450
O404        O  0.24805342  0.82883737  0.34971819    -0.77410
O405        O  0.28992884  0.74044964  0.36982536    -0.86900
O406        O  0.21703102  0.79511232  0.38953685    -0.86590
O407        O  0.29916845  0.70047015  0.41837653    -0.73350
O408        O  0.23276793  0.75143626  0.43668515    -0.85480
Zr409      Zr  0.17594291  0.64302762  0.38475331     2.26420
Zr410      Zr  0.30133148  0.66161329  0.37936870     2.06270
Zr411      Zr  0.16160743  0.76697158  0.41691173     2.10050
Zr412      Zr  0.21727222  0.75420212  0.35143065     1.78760
O413        O  0.11884192  0.76844649  0.45525260    -0.94290
O414        O  0.26297261  0.74908149  0.31407185    -0.42100
O415        O  0.16269064  0.72495817  0.37851267    -0.78730
O416        O  0.23153462  0.67448182  0.35812806    -0.97420
O417        O  0.24564297  0.62992406  0.40546897    -0.90720
O418        O  0.17053796  0.68504060  0.42421353    -0.93560
C419        C  0.28954147  0.83721966  0.35398204     1.00190
C420        C  0.21968658  0.87117592  0.42960912     1.13120
C421        C  0.39329363  0.72325883  0.39852653     1.03900
O422        O  0.34066356  0.66064803  0.33996222    -0.95720
O423        O  0.28544449  0.59027486  0.35878206    -0.91460
O424        O  0.20905177  0.57906528  0.36063481    -0.84610
C425        C  0.24959662  0.56781484  0.35351247     1.10540
O426        O  0.27637437  0.69789638  0.48123659    -0.97690
Zr427      Zr  0.24078576  0.67000189  0.44369433     1.88940
O428        O  0.16581552  0.57904576  0.41161775    -0.74340
O429        O  0.34700319  0.59969363  0.39669235    -0.53600
O430        O  0.30590087  0.62359249  0.45671739    -0.98280
O431        O  0.18854712  0.67087822  0.47865394    -0.55500
O432        O  0.21327144  0.59154162  0.44371690    -0.74860
C433        C  0.18668695  0.56602815  0.43098403     0.97490
O434        O  0.13095610  0.62874336  0.34775408    -0.63680
O435        O  0.09756112  0.81340009  0.40262029    -0.58480
O436        O  0.09459866  0.64266214  0.38475272    -0.95160
O437        O  0.12154752  0.70387271  0.39972185    -0.93590
O438        O  0.15041246  0.80003205  0.34066240    -0.93940
O439        O  0.17477897  0.72939079  0.31544113    -0.92730
C440        C  0.08690362  0.68291112  0.39217451     1.16330
H441        H  0.21079706  0.82718391  0.38710920     0.32270
H442        H  0.23208046  0.65874279  0.34244731     0.43130
H443        H  0.14740457  0.67299027  0.43504083     0.36650
H444        H  0.32725781  0.69556241  0.42721198     0.33130
H445        H  0.26144591  0.78005640  0.30695989     0.24920
H446        H  0.37319212  0.59564748  0.38533372     0.30860
H447        H  0.29296836  0.60037684  0.46772292     0.36770
H448        H  0.16187148  0.82300081  0.32904501     0.31230
H449        H  0.09196340  0.83632076  0.41580661     0.30100
H450        H  0.11094767  0.80109995  0.45807450     0.31780
H451        H  0.16641754  0.64637890  0.47534180     0.30750
H452        H  0.18335173  0.69682807  0.31291338     0.34750
H453        H  0.12195032  0.65947936  0.34183797     0.27480
H454        H  0.35774800  0.83572184  0.43018030     0.31720
H455        H  0.27264454  0.67348072  0.49349093     0.34570
H456        H  0.11024218  0.83113034  0.38889336     0.27180
H457        H  0.15247961  0.61733797  0.33500809     0.40050
H458        H  0.35385338  0.69144691  0.33850488     0.30100
H459        H  0.29481331  0.74541345  0.31972418     0.37720
H460        H  0.17070322  0.69969599  0.47716560     0.29570
H461        H  0.36029491  0.61259238  0.41187868     0.29630
H462        H  0.34772830  0.79710930  0.44918960     0.29900
Zr463      Zr  0.69190975  0.65291316  0.41249798     2.17510
O464        O  0.65053619  0.62027835  0.44677073    -0.52460
O465        O  0.66517547  0.60583857  0.37859155    -0.75660
O466        O  0.61063461  0.67420123  0.41065097    -0.82440
O467        O  0.79880766  0.58462860  0.42998459    -0.84190
O468        O  0.60558599  0.74415604  0.39292862    -0.79810
O469        O  0.72171900  0.57920270  0.42784239    -0.91450
O470        O  0.72655834  0.59634780  0.35385807    -0.77410
O471        O  0.68826898  0.68850562  0.37332874    -0.86900
O472        O  0.76191544  0.63463157  0.39197664    -0.86590
O473        O  0.68384847  0.73395330  0.42113522    -0.73350
O474        O  0.75008871  0.68389444  0.43885026    -0.85480
Zr475      Zr  0.80579526  0.78170827  0.38446359     2.26420
Zr476      Zr  0.67988978  0.76856131  0.38136636     2.06270
Zr477      Zr  0.81904392  0.66460123  0.41772380     2.10050
Zr478      Zr  0.75871651  0.67064920  0.35314021     1.78760
O479        O  0.84852012  0.67374132  0.45911374    -0.94290
O480        O  0.70615545  0.67153371  0.31854862    -0.42100
O481        O  0.81714443  0.70071728  0.37821480    -0.78730
O482        O  0.74788312  0.75075277  0.35907561    -0.97420
O483        O  0.73792273  0.80079430  0.40595433    -0.90720
O484        O  0.81240452  0.74594350  0.42384682    -0.93560
C485        C  0.68581855  0.58775878  0.36003565     1.00190
C486        C  0.76153177  0.56153056  0.43219352     1.13120
C487        C  0.58805846  0.70946312  0.40308626     1.03900
O488        O  0.64425443  0.75968698  0.34135178    -0.95720
O489        O  0.69919997  0.83817148  0.36021547    -0.91460
O490        O  0.77645557  0.84040788  0.35689507    -0.84610
C491        C  0.73609603  0.85478671  0.35163230     1.10540
O492        O  0.70928298  0.73937219  0.48270573    -0.97690
Zr493      Zr  0.74431272  0.76588233  0.44489742     1.88940
O494        O  0.81257249  0.85235636  0.40707045    -0.74340
O495        O  0.63070011  0.83384537  0.39194151    -0.53600
O496        O  0.68181695  0.81685317  0.45747832    -0.98280
O497        O  0.79809705  0.76847495  0.47900877    -0.55500
O498        O  0.77659862  0.84274445  0.44359843    -0.74860
C499        C  0.79838257  0.86696859  0.42797091     0.97490
O500        O  0.85772572  0.79654347  0.35035491    -0.63680
O501        O  0.88326339  0.61150108  0.41223954    -0.58480
O502        O  0.88400416  0.77165337  0.39441093    -0.95160
O503        O  0.88815495  0.69465722  0.40029891    -0.93590
O504        O  0.82117882  0.62133497  0.33889334    -0.93940
O505        O  0.79822121  0.69501689  0.31617894    -0.92730
C506        C  0.90546152  0.73362388  0.39556362     1.16330
H507        H  0.76753921  0.60232077  0.38983965     0.32270
H508        H  0.74712376  0.76477048  0.34310253     0.43130
H509        H  0.83844695  0.75730437  0.43268254     0.36650
H510        H  0.65625400  0.74002048  0.43038366     0.33130
H511        H  0.71273449  0.64266203  0.30948945     0.24920
H512        H  0.60353203  0.83091029  0.38132387     0.30860
H513        H  0.69592199  0.83954641  0.46859069     0.36770
H514        H  0.80726990  0.60091498  0.32649871     0.31230
H515        H  0.88741821  0.59660271  0.42831004     0.30100
H516        H  0.87981409  0.68520268  0.45675246     0.31780
H517        H  0.78612662  0.79300845  0.49000878     0.30750
H518        H  0.78072143  0.72178647  0.31012393     0.34750
H519        H  0.87598721  0.76805779  0.34812218     0.27480
H520        H  0.62522285  0.60309717  0.43926363     0.31720
H521        H  0.70851980  0.76592332  0.49411241     0.34570
H522        H  0.87193831  0.58714206  0.40119477     0.27180
H523        H  0.83843060  0.79736847  0.33549186     0.40050
H524        H  0.62119136  0.73571802  0.34357933     0.30100
H525        H  0.67553630  0.66723838  0.32576215     0.37720
H526        H  0.82652453  0.78123777  0.47230231     0.29570
H527        H  0.61952065  0.82792875  0.40874130     0.29630
H528        H  0.63564585  0.64669254  0.45520975     0.29900
Zr529      Zr  0.79040870  0.26949625  0.91262049     2.17510
O530        O  0.83324909  0.30215270  0.94659044    -0.52460
O531        O  0.81427744  0.31681190  0.87869436    -0.75660
O532        O  0.87196415  0.25095695  0.90795019    -0.82440
O533        O  0.68384148  0.33752757  0.93145568    -0.84190
O534        O  0.87759397  0.18119330  0.88933309    -0.79810
O535        O  0.76086529  0.34308126  0.92861217    -0.91450
O536        O  0.75218442  0.32257954  0.85441381    -0.77410
O537        O  0.79316279  0.23139918  0.87376044    -0.86900
O538        O  0.71982631  0.28603610  0.89274779    -0.86590
O539        O  0.79937245  0.18935225  0.92188156    -0.73350
O540        O  0.73289971  0.23970192  0.93964643    -0.85480
Zr541      Zr  0.67598379  0.13777290  0.88590057     2.26420
Zr542      Zr  0.80268518  0.15214256  0.88253495     2.06270
Zr543      Zr  0.66349148  0.25729497  0.91912410     2.10050
Zr544      Zr  0.72228845  0.24750676  0.85410624     1.78760
O545        O  0.63447989  0.25143195  0.96079687    -0.94290
O546        O  0.77446303  0.24674293  0.81917239    -0.42100
O547        O  0.66474284  0.21859475  0.87985969    -0.78730
O548        O  0.73420553  0.16776603  0.86038555    -0.97420
O549        O  0.74436591  0.12099556  0.90718329    -0.90720
O550        O  0.67005235  0.17606389  0.92516772    -0.93560
C551        C  0.79246375  0.33328167  0.86038121     1.00190
C552        C  0.72113944  0.36066573  0.93339471     1.13120
C553        C  0.89507552  0.21689379  0.89890623     1.03900
O554        O  0.84167950  0.14907164  0.84304893    -0.95720
O555        O  0.78481210  0.08092660  0.86220412    -0.91460
O556        O  0.70766780  0.07561157  0.85965816    -0.84610
C557        C  0.74854740  0.06157509  0.85454779     1.10540
O558        O  0.77371686  0.18668827  0.98355513    -0.97690
Zr559      Zr  0.73873878  0.15814296  0.94596787     1.88940
O560        O  0.66733732  0.06981780  0.91018281    -0.74340
O561        O  0.84919645  0.09144558  0.90042306    -0.53600
O562        O  0.80164935  0.10811620  0.95821909    -0.98280
O563        O  0.68553120  0.15815961  0.98054037    -0.55500
O564        O  0.70651721  0.08116937  0.94561935    -0.74860
C565        C  0.68308170  0.05627666  0.93081512     0.97490
O566        O  0.62640753  0.12012474  0.85116229    -0.63680
O567        O  0.60069562  0.31113097  0.91204269    -0.58480
O568        O  0.59600508  0.15199950  0.89289042    -0.95160
O569        O  0.59294895  0.22758380  0.90379892    -0.93590
O570        O  0.65819684  0.29458865  0.84050790    -0.93940
O571        O  0.68315212  0.22103924  0.81731454    -0.92730
C572        C  0.57504217  0.19006832  0.89669458     1.16330
H573        H  0.71368700  0.31823135  0.89079276     0.32270
H574        H  0.73513062  0.15256612  0.84456137     0.43130
H575        H  0.64393385  0.16510283  0.93405174     0.36650
H576        H  0.82759574  0.18434258  0.93061221     0.33130
H577        H  0.76655670  0.27475874  0.80997796     0.24920
H578        H  0.87520821  0.08716650  0.88896524     0.30860
H579        H  0.78784715  0.08596625  0.96954798     0.36770
H580        H  0.67134303  0.31529428  0.82819187     0.31230
H581        H  0.59537535  0.32696746  0.92794985     0.30100
H582        H  0.60226053  0.24253268  0.95873581     0.31780
H583        H  0.69702230  0.13365109  0.99138500     0.30750
H584        H  0.70062177  0.19380317  0.81148106     0.34750
H585        H  0.61004249  0.14911412  0.84752116     0.27480
H586        H  0.85737974  0.32046737  0.93885659     0.31720
H587        H  0.77511187  0.16056404  0.99493188     0.34570
H588        H  0.61336856  0.33469602  0.90116397     0.27180
H589        H  0.64689392  0.11579622  0.83683459     0.40050
H590        H  0.85014229  0.18106164  0.83977680     0.30100
H591        H  0.80489775  0.25283169  0.82615962     0.37720
H592        H  0.65661582  0.14601930  0.97406134     0.29570
H593        H  0.86267457  0.10517371  0.91534937     0.29630
H594        H  0.84962576  0.27590613  0.95401068     0.29900
Zr595      Zr  0.19695012  0.16372449  0.90491930     2.17510
O596        O  0.14966672  0.12614319  0.93530290    -0.52460
O597        O  0.18705684  0.11126002  0.87001388    -0.75660
O598        O  0.11534505  0.18225107  0.89991120    -0.82440
O599        O  0.30125290  0.09684673  0.92629572    -0.84190
O600        O  0.10857824  0.25493335  0.88592932    -0.79810
O601        O  0.22462239  0.09122308  0.92177980    -0.91450
O602        O  0.24801382  0.11793601  0.84465248    -0.77410
O603        O  0.19599195  0.20516848  0.86750126    -0.86900
O604        O  0.26975195  0.15100756  0.88669748    -0.86590
O605        O  0.18517097  0.24276273  0.91686439    -0.73350
O606        O  0.25079845  0.19248275  0.93467937    -0.85480
Zr607      Zr  0.31034268  0.30254305  0.88532076     2.26420
Zr608      Zr  0.18361571  0.28347601  0.87902399     2.06270
Zr609      Zr  0.32284026  0.17754599  0.91569335     2.10050
Zr610      Zr  0.26967214  0.19411708  0.84952528     1.78760
O611        O  0.36226084  0.17638737  0.95490702    -0.94290
O612        O  0.21762184  0.19602245  0.81470918    -0.42100
O613        O  0.32308524  0.22067884  0.87803717    -0.78730
O614        O  0.25458848  0.27266795  0.85801844    -0.97420
O615        O  0.23929120  0.31467930  0.90565298    -0.90720
O616        O  0.31354476  0.25940867  0.92410908    -0.93560
C617        C  0.21174625  0.09876356  0.85144076     1.00190
C618        C  0.26378873  0.07365871  0.92727700     1.13120
C619        C  0.09164488  0.21773572  0.89364262     1.03900
O620        O  0.14335828  0.28579217  0.84005626    -0.95720
O621        O  0.20029342  0.35386863  0.85868171    -0.91460
O622        O  0.27676854  0.36533883  0.86081767    -0.84610
C623        C  0.23628470  0.37592031  0.85337203     1.10540
O624        O  0.20671894  0.24065712  0.97921175    -0.97690
Zr625      Zr  0.24239926  0.27399557  0.94320614     1.88940
O626        O  0.31811979  0.36605895  0.91326009    -0.74340
O627        O  0.13872308  0.34492290  0.89817998    -0.53600
O628        O  0.17601945  0.31968032  0.95579277    -0.98280
O629        O  0.29183025  0.27611754  0.97922556    -0.55500
O630        O  0.27023824  0.35298030  0.94521947    -0.74860
C631        C  0.29702433  0.37872994  0.93283607     0.97490
O632        O  0.35821974  0.31761961  0.84948703    -0.63680
O633        O  0.38768568  0.13116870  0.90166967    -0.58480
O634        O  0.39294474  0.30016016  0.88577342    -0.95160
O635        O  0.36241495  0.24095157  0.89973576    -0.93590
O636        O  0.33759893  0.15402520  0.83427025    -0.93940
O637        O  0.31000622  0.22728908  0.81495049    -0.92730
C638        C  0.39870198  0.25991059  0.89324808     1.16330
H639        H  0.27677297  0.11904234  0.88404395     0.32270
H640        H  0.25442829  0.28850672  0.84255692     0.43130
H641        H  0.33599032  0.27101878  0.93528035     0.36650
H642        H  0.15642004  0.24628984  0.92540166     0.33130
H643        H  0.23249466  0.17640784  0.80202545     0.24920
H644        H  0.11322980  0.35061138  0.88669124     0.30860
H645        H  0.18792231  0.34235940  0.96766202     0.36770
H646        H  0.32680175  0.13473955  0.82049402     0.31230
H647        H  0.39168990  0.10735566  0.91427080     0.30100
H648        H  0.37171003  0.14404786  0.95704568     0.31780
H649        H  0.27605547  0.29706405  0.99096184     0.30750
H650        H  0.28887235  0.25041525  0.80799330     0.34750
H651        H  0.36585603  0.28701787  0.84252496     0.27480
H652        H  0.12654931  0.10915476  0.92582745     0.31720
H653        H  0.20043884  0.26618257  0.99085605     0.34570
H654        H  0.37618847  0.11453383  0.88710022     0.27180
H655        H  0.33826295  0.33138996  0.83688225     0.40050
H656        H  0.13865497  0.25335258  0.83553638     0.30100
H657        H  0.19060685  0.17865199  0.81989009     0.37720
H658        H  0.31917213  0.29321071  0.97433341     0.29570
H659        H  0.12427329  0.33096069  0.91265671     0.29630
H660        H  0.13242016  0.15108365  0.94375004     0.29900
Zr661      Zr  0.18949645  0.78928905  0.97625885     2.17510
O662        O  0.14422141  0.82012497  0.94270547    -0.52460
O663        O  0.17665772  0.85265700  0.00518207    -0.75660
O664        O  0.10783103  0.76774869  0.97980182    -0.82440
O665        O  0.29711949  0.85239558  0.95661650    -0.84190
O666        O  0.10570228  0.69905598  0.99877281    -0.79810
O667        O  0.21991654  0.85979646  0.95822696    -0.91450
O668        O  0.22738291  0.84341377  0.03621400    -0.77410
O669        O  0.18726502  0.75348462  0.01547492    -0.86900
O670        O  0.26076520  0.80320836  0.99568752    -0.86590
O671        O  0.18198230  0.70865380  0.96756990    -0.73350
O672        O  0.24684491  0.75663659  0.94894442    -0.85480
Zr673      Zr  0.30552734  0.65492874  0.00227879     2.26420
Zr674      Zr  0.18048605  0.67340624  0.00701122     2.06270
Zr675      Zr  0.31700373  0.77228950  0.96901622     2.10050
Zr676      Zr  0.25881748  0.76781068  0.03455620     1.78760
O677        O  0.34425543  0.76727851  0.92687699    -0.94290
O678        O  0.20671048  0.76544436  0.06943823    -0.42100
O679        O  0.31632450  0.73581369  0.00844710    -0.78730
O680        O  0.24893203  0.68833129  0.02861227    -0.97420
O681        O  0.23691568  0.63909910  0.98149633    -0.90720
O682        O  0.31007265  0.69128109  0.96290332    -0.93560
C683        C  0.19792341  0.86687865  0.02435525     1.00190
C684        C  0.25983997  0.87631355  0.95406090     1.13120
C685        C  0.08660790  0.73238518  0.98788811     1.03900
O686        O  0.13481835  0.67162592  0.04432984    -0.95720
O687        O  0.19973300  0.60802154  0.03128635    -0.91460
O688        O  0.27669691  0.59732290  0.03099224    -0.84610
C689        C  0.23619876  0.58769990  0.03835362     1.10540
O690        O  0.20468879  0.70420588  0.90566594    -0.97690
Zr691      Zr  0.24108323  0.67486837  0.94261751     1.88940
O692        O  0.30877684  0.58441650  0.97879521    -0.74340
O693        O  0.14175584  0.60845611  0.98864358    -0.53600
O694        O  0.17788368  0.62691603  0.93004239    -0.98280
O695        O  0.29422387  0.67219116  0.90799628    -0.55500
O696        O  0.27214783  0.59645016  0.94264887    -0.74860
C697        C  0.29378927  0.57087862  0.95794442     0.97490
O698        O  0.36089813  0.63745466  0.03445787    -0.63680
O699        O  0.37827576  0.82471363  0.97888667    -0.58480
O700        O  0.38380380  0.66261124  0.99123963    -0.95160
O701        O  0.38893849  0.73765628  0.98050114    -0.93590
O702        O  0.32069684  0.81636082  0.04821809    -0.93940
O703        O  0.30187491  0.74152550  0.07009564    -0.92730
C704        C  0.40584396  0.69881838  0.98674208     1.16330
H705        H  0.26695153  0.83525107  0.99776130     0.32270
H706        H  0.24882115  0.67481823  0.04470276     0.43130
H707        H  0.33555779  0.67918046  0.95351282     0.36650
H708        H  0.15388781  0.70328007  0.95889434     0.33130
H709        H  0.21891406  0.78793153  0.08132123     0.24920
H710        H  0.11676760  0.60164859  0.00022975     0.30860
H711        H  0.19143572  0.60441438  0.91833499     0.36770
H712        H  0.30750207  0.83506328  0.06179972     0.31230
H713        H  0.38544806  0.84023507  0.96332895     0.30100
H714        H  0.37685214  0.75842364  0.92833407     0.31780
H715        H  0.28102364  0.64998060  0.89629111     0.30750
H716        H  0.28391865  0.71653800  0.07723594     0.34750
H717        H  0.37762151  0.66618641  0.03723381     0.27480
H718        H  0.11910062  0.83783111  0.95065274     0.31720
H719        H  0.20367560  0.67831410  0.89385791     0.34570
H720        H  0.36399871  0.84869834  0.98944727     0.27180
H721        H  0.34301111  0.63422552  0.04974651     0.40050
H722        H  0.13738734  0.70265570  0.05154003     0.30100
H723        H  0.17798454  0.77970786  0.06357138     0.37720
H724        H  0.32205311  0.65643498  0.91398928     0.29570
H725        H  0.12616933  0.62082051  0.97400983     0.29630
H726        H  0.12938440  0.79336267  0.93506818     0.29900
Zr727      Zr  0.79087502  0.64916734  0.97873183     2.17510
O728        O  0.83358623  0.61498560  0.94460355    -0.52460
O729        O  0.81166534  0.59384032  0.01072796    -0.75660
O730        O  0.87224484  0.67042785  0.98048844    -0.82440
O731        O  0.68359882  0.58267320  0.96144498    -0.84190
O732        O  0.87383215  0.74418123  0.99383122    -0.79810
O733        O  0.76085566  0.57621824  0.96311591    -0.91450
O734        O  0.76047333  0.60714649  0.04134458    -0.77410
O735        O  0.79288126  0.68952250  0.01709280    -0.86900
O736        O  0.72007669  0.63575484  0.99882049    -0.86590
O737        O  0.79748991  0.72924737  0.96841305    -0.73350
O738        O  0.73260735  0.67847631  0.95127038    -0.85480
Zr739      Zr  0.67416914  0.78829788  0.00402926     2.26420
Zr740      Zr  0.80022726  0.76856587  0.00733823     2.06270
Zr741      Zr  0.66270360  0.66388842  0.97201253     2.10050
Zr742      Zr  0.72120438  0.67720776  0.03653842     1.78760
O743        O  0.62392790  0.66516582  0.93260007    -0.94290
O744        O  0.76726176  0.68777431  0.07323452    -0.42100
O745        O  0.66423530  0.70607947  0.01046380    -0.78730
O746        O  0.73201535  0.75633338  0.03012244    -0.97420
O747        O  0.74260959  0.80058401  0.98176857    -0.90720
O748        O  0.66845877  0.74586792  0.96468959    -0.93560
C749        C  0.79336755  0.58468230  0.03159339     1.00190
C750        C  0.72118158  0.55896764  0.95922925     1.13120
C751        C  0.89307661  0.70804378  0.98539739     1.03900
O752        O  0.82798143  0.76310301  0.04923517    -0.95720
O753        O  0.77719874  0.84671913  0.01549824    -0.91460
O754        O  0.70953716  0.84069220  0.03370975    -0.84610
C755        C  0.74962882  0.85726311  0.03276711     1.10540
O756        O  0.77301660  0.72790625  0.90677156    -0.97690
Zr757      Zr  0.73738623  0.76005508  0.94375375     1.88940
O758        O  0.66819157  0.85393993  0.97751960    -0.74340
O759        O  0.85570858  0.82991529  0.00558793    -0.53600
O760        O  0.80084946  0.80708717  0.93082124    -0.98280
O761        O  0.68530470  0.75994007  0.90881872    -0.55500
O762        O  0.70624680  0.83829294  0.94200806    -0.74860
C763        C  0.68340183  0.86532830  0.95642128     0.97490
O764        O  0.62027815  0.81879640  0.03455322    -0.63680
O765        O  0.59635039  0.62024099  0.98401436    -0.58480
O766        O  0.59230591  0.78538592  0.00626748    -0.95160
O767        O  0.62313671  0.72611213  0.99089945    -0.93590
O768        O  0.66164873  0.62468052  0.04847016    -0.93940
O769        O  0.67379952  0.70171011  0.07120181    -0.92730
C770        C  0.58672368  0.74598657  0.99756587     1.16330
H771        H  0.71545616  0.60388123  0.00225411     0.32270
H772        H  0.73389802  0.76982051  0.04632914     0.43130
H773        H  0.64414694  0.75764133  0.95448630     0.36650
H774        H  0.82463742  0.73371496  0.95874266     0.33130
H775        H  0.75629877  0.66456322  0.08484867     0.24920
H776        H  0.88219089  0.81993343  0.01551070     0.30860
H777        H  0.78757861  0.82865009  0.91881925     0.36770
H778        H  0.67509650  0.60658481  0.06196059     0.31230
H779        H  0.59151165  0.59833671  0.97034788     0.30100
H780        H  0.61891651  0.63258855  0.92849947     0.31780
H781        H  0.69825262  0.78209319  0.89719848     0.30750
H782        H  0.67781130  0.73516408  0.07256827     0.34750
H783        H  0.63246198  0.80892621  0.05061498     0.27480
H784        H  0.85925446  0.59799144  0.95219988     0.31720
H785        H  0.77596552  0.75344251  0.89513483     0.34570
H786        H  0.60727329  0.60113521  0.99774005     0.27180
H787        H  0.62367289  0.85242504  0.03451254     0.40050
H788        H  0.85759380  0.74659247  0.04772565     0.30100
H789        H  0.79825434  0.67695184  0.06853148     0.37720
H790        H  0.65681678  0.77509237  0.91460382     0.29570
H791        H  0.86687580  0.83045306  0.98843536     0.29630
H792        H  0.84787992  0.64098078  0.93618960     0.29900
Zr793      Zr  0.54517503  0.51331351  0.22331893     2.17510
O794        O  0.58958230  0.55730460  0.19427042    -0.52460
O795        O  0.58703772  0.53235690  0.26043385    -0.75660
O796        O  0.52722418  0.59539302  0.22689513    -0.82440
O797        O  0.60496306  0.40382229  0.19909597    -0.84190
O798        O  0.45754033  0.60280710  0.24507194    -0.79810
O799        O  0.61668300  0.47914569  0.20717161    -0.91450
O800        O  0.59175915  0.46612508  0.28104109    -0.77410
O801        O  0.50561315  0.51279233  0.26163733    -0.86900
O802        O  0.55580080  0.43921502  0.24010532    -0.86590
O803        O  0.46646436  0.52819339  0.21301900    -0.73350
O804        O  0.51348898  0.46177086  0.19326704    -0.85480
Zr805      Zr  0.40479250  0.40290949  0.24182982     2.26420
Zr806      Zr  0.42760472  0.52804319  0.25185854     2.06270
Zr807      Zr  0.52492643  0.38830080  0.21084553     2.10050
Zr808      Zr  0.51598127  0.43809790  0.27808444     1.78760
O809        O  0.54009168  0.35597965  0.17028927    -0.94290
O810        O  0.51153286  0.48387192  0.31567079    -0.42100
O811        O  0.48443323  0.38637442  0.24931611    -0.78730
O812        O  0.43744821  0.45517982  0.27083939    -0.97420
O813        O  0.39411982  0.47573366  0.22385843    -0.90720
O814        O  0.44439242  0.40140501  0.20305890    -0.93560
C815        C  0.60168160  0.50775123  0.27815063     1.00190
C816        C  0.63091393  0.43916726  0.19997847     1.13120
C817        C  0.49325521  0.61940703  0.23527656     1.03900
O818        O  0.43027820  0.56485806  0.29208849    -0.95720
O819        O  0.35665340  0.51120210  0.27218503    -0.91460
O820        O  0.34904441  0.43397839  0.27199014    -0.84610
C821        C  0.33684817  0.47464336  0.27887297     1.10540
O822        O  0.46412348  0.50926015  0.14896186    -0.97690
Zr823      Zr  0.43322893  0.47404149  0.18565052     1.88940
O824        O  0.34017180  0.39881471  0.21380313    -0.74340
O825        O  0.36613169  0.57713842  0.23689677    -0.53600
O826        O  0.39133691  0.54284234  0.17377781    -0.98280
O827        O  0.43185116  0.42300397  0.14994608    -0.55500
O828        O  0.35331822  0.45230924  0.18494403    -0.74860
C829        C  0.32709528  0.42435907  0.19604858     0.97490
O830        O  0.36527286  0.34278515  0.26366805    -0.63680
O831        O  0.57057462  0.32975259  0.23125732    -0.58480
O832        O  0.43404171  0.32508432  0.24200749    -0.95160
O833        O  0.47848667  0.32197518  0.20843380    -0.93590
O834        O  0.56207067  0.37200327  0.28989719    -0.93940
O835        O  0.48739934  0.39209366  0.31167521    -0.92730
C836        C  0.46126612  0.30373766  0.22730252     1.16330
H837        H  0.58750617  0.43123375  0.24244602     0.32270
H838        H  0.42285571  0.45486525  0.28673939     0.43130
H839        H  0.43101430  0.37896668  0.19226217     0.36650
H840        H  0.46298257  0.55729869  0.20504018     0.33130
H841        H  0.54026349  0.47685720  0.32445056     0.24920
H842        H  0.36496536  0.60343914  0.24846666     0.30860
H843        H  0.36815103  0.53220345  0.16194382     0.36770
H844        H  0.58153685  0.38318835  0.30343408     0.31230
H845        H  0.59189731  0.31796990  0.21849881     0.30100
H846        H  0.55646654  0.32678912  0.17345527     0.31780
H847        H  0.40560802  0.40269976  0.15252145     0.30750
H848        H  0.45837091  0.40698178  0.31688596     0.34750
H849        H  0.37124303  0.34873440  0.28129234     0.27480
H850        H  0.60532667  0.58066056  0.20426274     0.31720
H851        H  0.43969927  0.50777719  0.13649007     0.34570
H852        H  0.59017527  0.34665742  0.24285345     0.27180
H853        H  0.33233692  0.34931510  0.26152415     0.40050
H854        H  0.46115163  0.57794421  0.29318621     0.30100
H855        H  0.51470028  0.51591259  0.31039909     0.37720
H856        H  0.45912392  0.40292334  0.15161391     0.29570
H857        H  0.37778757  0.58986887  0.22138320     0.29630
H858        H  0.56682189  0.57464544  0.18456481     0.29900
Zr859      Zr  0.44482921  0.92297913  0.22408115     2.17510
O860        O  0.41104182  0.88481012  0.18877775    -0.52460
O861        O  0.39515914  0.89919611  0.25686650    -0.75660
O862        O  0.46018348  0.84039131  0.22607425    -0.82440
O863        O  0.38225598  0.03399930  0.20997953    -0.84190
O864        O  0.53085874  0.83220061  0.24254056    -0.79810
O865        O  0.37169756  0.95715675  0.21155924    -0.91450
O866        O  0.39620042  0.95606203  0.28544815    -0.77410
O867        O  0.48414645  0.91532288  0.26212038    -0.86900
O868        O  0.43166082  0.99252261  0.24633193    -0.86590
O869        O  0.52413917  0.91141253  0.21328170    -0.73350
O870        O  0.47490668  0.98215378  0.19849741    -0.85480
Zr871      Zr  0.58330030  0.03128609  0.25056463     2.26420
Zr872      Zr  0.56278088  0.90515720  0.25189870     2.06270
Zr873      Zr  0.46270437  0.05066836  0.22172810     2.10050
Zr874      Zr  0.47167346  0.98507482  0.28405889     1.78760
O875        O  0.47797620  0.09200893  0.18410717    -0.94290
O876        O  0.47402156  0.93017541  0.31738138    -0.42100
O877        O  0.50338846  0.04231858  0.25960696    -0.78730
O878        O  0.55115936  0.97303489  0.27593003    -0.97420
O879        O  0.59402278  0.96318348  0.22729724    -0.90720
O880        O  0.54278806  0.04114491  0.21235859    -0.93560
C881        C  0.38080583  0.91904819  0.27652657     1.00190
C882        C  0.35694640  0.99825698  0.20793773     1.13120
C883        C  0.49440251  0.81601604  0.23339493     1.03900
O884        O  0.56550802  0.87723332  0.29378534    -0.95720
O885        O  0.64163587  0.92314302  0.25972740    -0.91460
O886        O  0.63982367  0.99350727  0.27653474    -0.84610
C887        C  0.65628301  0.95274369  0.27504998     1.10540
O888        O  0.51886713  0.94565372  0.15206547    -0.97690
Zr889      Zr  0.55517183  0.97234450  0.18968566     1.88940
O890        O  0.65124352  0.03464314  0.22458728    -0.74340
O891        O  0.62040846  0.84684132  0.24181378    -0.53600
O892        O  0.59656064  0.90651653  0.17253831    -0.98280
O893        O  0.56182087  0.02975844  0.15772411    -0.55500
O894        O  0.63580050  0.99208690  0.19063424    -0.74860
C895        C  0.66334278  0.01439535  0.20447946     0.97490
O896        O  0.61063311  0.08377848  0.28248313    -0.63680
O897        O  0.41645566  0.12062321  0.22394386    -0.58480
O898        O  0.56561441  0.11119392  0.24542708    -0.95160
O899        O  0.49240780  0.09976845  0.25370394    -0.93590
O900        O  0.42682972  0.05084055  0.29847767    -0.93940
O901        O  0.49708974  0.02080534  0.32212936    -0.92730
C902        C  0.52533563  0.12658541  0.24952022     1.16330
H903        H  0.39997397  0.99946684  0.24961374     0.32270
H904        H  0.56654484  0.97043358  0.29151883     0.43130
H905        H  0.55449445  0.06721349  0.20380096     0.36650
H906        H  0.52789579  0.88353294  0.20381210     0.33130
H907        H  0.44828974  0.93934611  0.32825603     0.24920
H908        H  0.61530194  0.82140133  0.25328621     0.30860
H909        H  0.61847068  0.91950039  0.16074945     0.36770
H910        H  0.40438774  0.03813050  0.31006709     0.31230
H911        H  0.39948348  0.12193925  0.20829581     0.30100
H912        H  0.48973327  0.12189353  0.18970877     0.31780
H913        H  0.58084988  0.01491895  0.14480487     0.30750
H914        H  0.52777144  0.00761541  0.32527227     0.34750
H915        H  0.58278479  0.09786963  0.28980922     0.27480
H916        H  0.39176183  0.86063180  0.19573079     0.31720
H917        H  0.54331779  0.94283806  0.13956173     0.34570
H918        H  0.39297256  0.11458914  0.23653490     0.27180
H919        H  0.62304881  0.06511670  0.29600594     0.40050
H920        H  0.54092800  0.85448309  0.29461151     0.30100
H921        H  0.46442224  0.90087967  0.30992699     0.37720
H922        H  0.58174931  0.05364452  0.16460302     0.29570
H923        H  0.61220271  0.83472920  0.22541641     0.29630
H924        H  0.43670794  0.86815548  0.18069355     0.29900
Zr925      Zr  0.90999959  0.39766279  0.13214017     2.17510
O926        O  0.89204417  0.34243194  0.09980489    -0.52460
O927        O  0.83988787  0.40037561  0.15759095    -0.75660
O928        O  0.92097858  0.31972149  0.14551819    -0.82440
O929        O  0.88717857  0.46575138  0.11184893    -0.84190
O930        O  0.99409862  0.31518708  0.15935647    -0.79810
O931        O  0.85113243  0.40784001  0.10064639    -0.91450
O932        O  0.85394077  0.44780860  0.18994943    -0.77410
O933        O  0.94939638  0.39696633  0.17047135    -0.86900
O934        O  0.89755161  0.47402976  0.14995605    -0.86590
O935        O  0.99052971  0.38571141  0.12299252    -0.73350
O936        O  0.94470088  0.45496108  0.10560007    -0.85480
Zr937      Zr  0.04896800  0.51395438  0.15274283     2.26420
Zr938      Zr  0.02939473  0.38782918  0.16171926     2.06270
Zr939      Zr  0.93238766  0.52874325  0.12373224     2.10050
Zr940      Zr  0.93491798  0.47007835  0.18848856     1.78760
O941        O  0.91974495  0.56293989  0.08377439    -0.94290
O942        O  0.93437544  0.41216630  0.22039446    -0.42100
O943        O  0.96950673  0.52654962  0.16257426    -0.78730
O944        O  0.01611756  0.46030550  0.18095737    -0.97420
O945        O  0.06068632  0.44118212  0.13425566    -0.90720
O946        O  0.01106023  0.51643326  0.11414390    -0.93560
C947        C  0.82692324  0.42306890  0.17689191     1.00190
C948        C  0.85721974  0.44981698  0.09777962     1.13120
C949        C  0.95597303  0.29792281  0.15342958     1.03900
O950        O  0.03598887  0.36228096  0.20391374    -0.95720
O951        O  0.10840968  0.40239387  0.17316829    -0.91460
O952        O  0.11932344  0.47825342  0.16741741    -0.84610
C953        C  0.13369596  0.43792902  0.17301627     1.10540
O954        O  0.98509462  0.40672200  0.06100925    -0.97690
Zr955      Zr  0.02258534  0.44189074  0.09619643     1.88940
O956        O  0.10933047  0.52422625  0.12194755    -0.74340
O957        O  0.08299626  0.33041670  0.14547321    -0.53600
O958        O  0.06739488  0.37444370  0.08418647    -0.98280
O959        O  0.02378023  0.48870696  0.05936335    -0.55500
O960        O  0.09950461  0.46929078  0.09282719    -0.74860
C961        C  0.12241400  0.50151687  0.10269307     0.97490
O962        O  0.08012729  0.55801934  0.18685146    -0.63680
O963        O  0.86746351  0.57817233  0.13456504    -0.58480
O964        O  0.03424591  0.59620761  0.14848376    -0.95160
O965        O  0.96090291  0.60233929  0.13559702    -0.93590
O966        O  0.89377610  0.53711205  0.20425179    -0.93940
O967        O  0.96219002  0.50361363  0.22676389    -0.92730
C968        C  0.99811650  0.61968145  0.14319976     1.16330
H969        H  0.86607235  0.48362369  0.15197623     0.32270
H970        H  0.03256740  0.46141004  0.19629691     0.43130
H971        H  0.02259994  0.54066937  0.10407614     0.36650
H972        H  0.99479009  0.35594009  0.11543048     0.33130
H973        H  0.91580369  0.42592747  0.23382909     0.24920
H974        H  0.08380898  0.30581871  0.15780191     0.30860
H975        H  0.08746764  0.38491360  0.07080217     0.36770
H976        H  0.87139294  0.52501908  0.21607235     0.31230
H977        H  0.85480321  0.58906427  0.11884703     0.30100
H978        H  0.92163352  0.59628040  0.08679775     0.31780
H979        H  0.04677986  0.47369882  0.04851790     0.30750
H980        H  0.98802289  0.48383766  0.23195600     0.34750
H981        H  0.05374035  0.57542620  0.19371002     0.27480
H982        H  0.87178540  0.31968065  0.10733840     0.31720
H983        H  0.00972698  0.39766073  0.04940923     0.34570
H984        H  0.84394826  0.55812609  0.14148881     0.27180
H985        H  0.08734930  0.53527627  0.19964194     0.40050
H986        H  0.00849214  0.34379753  0.20671901     0.30100
H987        H  0.91524607  0.38724500  0.21389251     0.37720
H988        H  0.03806814  0.51782634  0.06423460     0.29570
H989        H  0.06778330  0.31675065  0.13102995     0.29630
H990        H  0.92095153  0.32555975  0.09642736     0.29900
Zr991      Zr  0.07953765  0.03542712  0.13892521     2.17510
O992        O  0.12378661  0.09019402  0.11556865    -0.52460
O993        O  0.14885990  0.03063592  0.16429643    -0.75660
O994        O  0.06120022  0.11426070  0.14827517    -0.82440
O995        O  0.10954440  0.94011136  0.09556034    -0.84190
O996        O  0.01955176  0.09845821  0.18071341    -0.79810
O997        O  0.12177633  0.01589761  0.10189865    -0.91450
O998        O  0.13436536  0.98285098  0.19575388    -0.77410
O999        O  0.04044886  0.03292686  0.17753999    -0.86900
O1000       O  0.09136684  0.95950229  0.15337829    -0.86590
O1001       O  0.99905109  0.05306830  0.13126103    -0.73350
O1002       O  0.04372879  0.98596248  0.10973476    -0.85480
Zr1003     Zr  0.93896141  0.92186572  0.15485529     2.26420
Zr1004     Zr  0.96023375  0.04643281  0.17022247     2.06270
Zr1005     Zr  0.05521012  0.91073521  0.12443553     2.10050
Zr1006     Zr  0.05398821  0.95856921  0.19228563     1.78760
O1007       O  0.04453053  0.86852809  0.08618686    -0.94290
O1008       O  0.05286030  0.01088261  0.22744787    -0.42100
O1009       O  0.01845045  0.90778083  0.16338035    -0.78730
O1010       O  0.97247671  0.97109608  0.18575065    -0.97420
O1011       O  0.92762511  0.99729449  0.14039552    -0.90720
O1012       O  0.97664496  0.92552116  0.11623287    -0.93560
C1013       C  0.16159953  0.00833467  0.18342347     1.00190
C1014       C  0.12743737  0.97834852  0.08998363     1.13120
C1015       C  0.03217905  0.12638992  0.16454657     1.03900
O1016       O  0.93894527  0.08522497  0.20835220    -0.95720
O1017       O  0.88398526  0.02844837  0.18518371    -0.91460
O1018       O  0.86864395  0.95744452  0.17045484    -0.84610
C1019       C  0.85658555  0.99545995  0.18082732     1.10540
O1020       O  0.99746660  0.04885031  0.06987651    -0.97690
Zr1021     Zr  0.96539358  0.00189393  0.10216199     1.88940
O1022       O  0.88163744  0.91073907  0.12228377    -0.74340
O1023       O  0.91450404  0.10687383  0.15124326    -0.53600
O1024       O  0.91476590  0.06764857  0.09621017    -0.98280
O1025       O  0.97012024  0.96441251  0.06198901    -0.55500
O1026       O  0.89202874  0.96821976  0.09530090    -0.74860
C1027       C  0.86993474  0.93393826  0.10320962     0.97490
O1028       O  0.90463818  0.87477775  0.18644219    -0.63680
O1029       O  0.12409504  0.86584528  0.13275161    -0.58480
O1030       O  0.95782713  0.84019907  0.14918722    -0.95160
O1031       O  0.03083697  0.83549221  0.13515470    -0.93590
O1032       O  0.09620412  0.88951444  0.20325145    -0.93940
O1033       O  0.02690508  0.91771700  0.22811079    -0.92730
C1034       C  0.99426195  0.81740283  0.14311101     1.16330
H1035       H  0.12307734  0.95039377  0.15396539     0.32270
H1036       H  0.95612234  0.96808327  0.20106572     0.43130
H1037       H  0.96493314  0.90300059  0.10490597     0.36650
H1038       H  0.99585553  0.08341711  0.12466350     0.33130
H1039       H  0.07229935  0.99572936  0.23985236     0.24920
H1040       H  0.90874678  0.12965308  0.16447320     0.30860
H1041       H  0.89487784  0.05881285  0.08236072     0.36770
H1042       H  0.11838655  0.89956276  0.21578288     0.31230
H1043       H  0.12394428  0.84075880  0.12042524     0.30100
H1044       H  0.07489899  0.85510356  0.08223901     0.31780
H1045       H  0.94259853  0.97511347  0.05312549     0.30750
H1046       H  0.00059631  0.93593172  0.23443533     0.34750
H1047       H  0.93027545  0.85655297  0.19323059     0.27480
H1048       H  0.13886581  0.11014015  0.12775661     0.31720
H1049       H  0.97181813  0.05652108  0.05881544     0.34570
H1050       H  0.14975317  0.88527257  0.12771933     0.27180
H1051       H  0.89633146  0.89622132  0.19995374     0.40050
H1052       H  0.95875408  0.07094183  0.22088037     0.30100
H1053       H  0.07075305  0.03758110  0.22230789     0.37720
H1054       H  0.96462953  0.93163912  0.06491531     0.29570
H1055       H  0.93423383  0.12253060  0.13939279     0.29630
H1056       H  0.10128252  0.11015841  0.10715924     0.29900
C1057       C  0.97695968  0.22681339  0.13419693    -0.14470
C1058       C  0.95600837  0.24884847  0.15421768     0.07680
C1059       C  0.95629691  0.22839090  0.17728052    -0.14470
C1060       C  0.98110566  0.18808740  0.18078958    -0.14470
C1061       C  0.00626119  0.16870510  0.16129864     0.07680
C1062       C  0.00277073  0.18740898  0.13779085    -0.14470
H1063       H  0.97798395  0.24306239  0.11643206     0.11660
H1064       H  0.94134298  0.24598144  0.19299769     0.11660
H1065       H  0.98246044  0.17335480  0.19890486     0.11660
H1066       H  0.02056241  0.17204126  0.12226372     0.11660
C1067       C  0.03861665  0.69475188  0.14447273    -0.14470
C1068       C  0.99807002  0.67018183  0.14564202     0.07680
C1069       C  0.95629045  0.69450478  0.14768670    -0.14470
C1070       C  0.95491454  0.74226999  0.14763180    -0.14470
C1071       C  0.99526405  0.76687368  0.14525943     0.07680
C1072       C  0.03721562  0.74256000  0.14414276    -0.14470
H1073       H  0.07123269  0.67707039  0.14293170     0.11660
H1074       H  0.92436777  0.67652833  0.14893058     0.11660
H1075       H  0.92218114  0.75983115  0.14870220     0.11660
H1076       H  0.06912506  0.76048007  0.14263464     0.11660
C1077       C  0.27397674  0.98489441  0.21764049    -0.14470
C1078       C  0.30699717  0.00431049  0.20227800     0.07680
C1079       C  0.29156101  0.02758067  0.18135250    -0.14470
C1080       C  0.24456724  0.02997849  0.17557714    -0.14470
C1081       C  0.21138983  0.00979618  0.19076111     0.07680
C1082       C  0.22707124  0.98786273  0.21211057    -0.14470
H1083       H  0.28458929  0.96700322  0.23399607     0.11660
H1084       H  0.31597286  0.04269341  0.16903350     0.11660
H1085       H  0.23434453  0.04683104  0.15885027     0.11660
H1086       H  0.20310191  0.97191463  0.22435966     0.11660
C1087       C  0.72790382  0.98484568  0.17816303    -0.14470
C1088       C  0.71267759  0.01356572  0.19746826     0.07680
C1089       C  0.74558765  0.03741672  0.21114861    -0.14470
C1090       C  0.79238778  0.03208021  0.20579328    -0.14470
C1091       C  0.80734570  0.00200441  0.18701408     0.07680
C1092       C  0.77440440  0.97890237  0.17316508    -0.14470
H1093       H  0.70390724  0.96574582  0.16720570     0.11660
H1094       H  0.73526435  0.05964998  0.22622589     0.11660
H1095       H  0.81689797  0.05070053  0.21666024     0.11660
H1096       H  0.78459417  0.95621363  0.15824294     0.11660
C1097       C  0.70844352  0.47257175  0.19092496    -0.14470
C1098       C  0.68085450  0.43377708  0.19318038     0.07680
C1099       C  0.70230920  0.39044966  0.19002737    -0.14470
C1100       C  0.74958079  0.38633296  0.18477333    -0.14470
C1101       C  0.77690857  0.42537370  0.18304535     0.07680
C1102       C  0.75548315  0.46840535  0.18611716    -0.14470
H1103       H  0.69371597  0.50654429  0.19303621     0.11660
H1104       H  0.68263319  0.35964731  0.19180151     0.11660
H1105       H  0.76487262  0.35265750  0.18238844     0.11660
H1106       H  0.77522588  0.49921180  0.18442803     0.11660
C1107       C  0.24732306  0.39172374  0.19758327    -0.14470
C1108       C  0.27805571  0.42435212  0.18877465     0.07680
C1109       C  0.26068429  0.46028490  0.17445170    -0.14470
C1110       C  0.21408763  0.46441556  0.16964226    -0.14470
C1111       C  0.18317503  0.43241574  0.17866769     0.07680
C1112       C  0.20041400  0.39543247  0.19233616    -0.14470
H1113       H  0.25941289  0.36369940  0.20875601     0.11660
H1114       H  0.28297356  0.48628971  0.16744038     0.11660
H1115       H  0.20226513  0.49287415  0.15869190     0.11660
H1116       H  0.17754925  0.36998291  0.19940457     0.11660
C1117       C  0.51663525  0.24029754  0.22164231    -0.14470
C1118       C  0.47787829  0.25839218  0.23373047     0.07680
C1119       C  0.45890043  0.23516698  0.25352430    -0.14470
C1120       C  0.47708428  0.19312906  0.26023106    -0.14470
C1121       C  0.51467594  0.17458895  0.24741867     0.07680
C1122       C  0.53543571  0.19897354  0.22876485    -0.14470
H1123       H  0.53244888  0.25788840  0.20654789     0.11660
H1124       H  0.42966393  0.24898023  0.26344836     0.11660
H1125       H  0.46069176  0.17417716  0.27467453     0.11660
H1126       H  0.56403463  0.18459656  0.21851415     0.11660
C1127       C  0.53484554  0.69287044  0.23147564    -0.14470
C1128       C  0.49369633  0.66955473  0.23302925     0.07680
C1129       C  0.45224615  0.69467254  0.23288542    -0.14470
C1130       C  0.45203059  0.74236037  0.23194210    -0.14470
C1131       C  0.49328251  0.76573337  0.23145821     0.07680
C1132       C  0.53464530  0.74048371  0.23085613    -0.14470
H1133       H  0.56715249  0.67441962  0.23144746     0.11660
H1134       H  0.41986752  0.67743054  0.23371482     0.11660
H1135       H  0.41978832  0.76090849  0.23246198     0.11660
H1136       H  0.56708732  0.75760848  0.23023595     0.11660
C1137       C  0.80386959  0.88159429  0.09366669    -0.14470
C1138       C  0.83018642  0.91985499  0.08796510     0.07680
C1139       C  0.82144087  0.94249394  0.06567392    -0.14470
C1140       C  0.79123047  0.92456469  0.04847384    -0.14470
C1141       C  0.76779790  0.88441575  0.05336542     0.07680
C1142       C  0.77265726  0.86422456  0.07653850    -0.14470
H1143       H  0.80933103  0.86351634  0.11064765     0.11660
H1144       H  0.84039363  0.97243480  0.06059802     0.11660
H1145       H  0.78849192  0.94034773  0.03064845     0.11660
H1146       H  0.75552577  0.83260485  0.08051286     0.11660
C1147       C  0.80354924  0.55297751  0.07261175    -0.14470
C1148       C  0.81035251  0.54754700  0.04716923     0.07680
C1149       C  0.82894691  0.50629550  0.03799267    -0.14470
C1150       C  0.84147173  0.47158124  0.05439944    -0.14470
C1151       C  0.83480707  0.47829438  0.07973980     0.07680
C1152       C  0.81475856  0.51845116  0.08853025    -0.14470
H1153       H  0.78944143  0.58430696  0.08043857     0.11660
H1154       H  0.83380127  0.50109998  0.01846976     0.11660
H1155       H  0.85796957  0.44064382  0.04752361     0.11660
H1156       H  0.80912444  0.52360624  0.10797305     0.11660
C1157       C  0.21631436  0.93035862  0.05299051    -0.14470
C1158       C  0.18775979  0.91254448  0.03457568     0.07680
C1159       C  0.14625416  0.93471534  0.02961388    -0.14470
C1160       C  0.12959995  0.96777388  0.04604080    -0.14470
C1161       C  0.15397376  0.97741566  0.06754998     0.07680
C1162       C  0.19929167  0.96280980  0.06954230    -0.14470
H1163       H  0.24957009  0.91523583  0.05653156     0.11660
H1164       H  0.12425292  0.92261643  0.01510021     0.11660
H1165       H  0.09447010  0.97927991  0.04428213     0.11660
H1166       H  0.21860937  0.97022668  0.08598229     0.11660
C1167       C  0.17664791  0.49315140  0.06714811    -0.14470
C1168       C  0.16503263  0.51447354  0.08970541     0.07680
C1169       C  0.19075200  0.55197079  0.09754833    -0.14470
C1170       C  0.22251342  0.57153181  0.08168471    -0.14470
C1171       C  0.22865149  0.55422948  0.05773480     0.07680
C1172       C  0.20788660  0.51310906  0.05124066    -0.14470
H1173       H  0.15835479  0.46357150  0.06062176     0.11660
H1174       H  0.18341216  0.56875226  0.11493299     0.11660
H1175       H  0.23755548  0.60377372  0.08692146     0.11660
H1176       H  0.21139124  0.49959567  0.03274559     0.11660
C1177       C  0.46778979  0.71888508  0.01323674    -0.14470
C1178       C  0.45373981  0.69815300  0.99142643     0.07680
C1179       C  0.48472229  0.68769686  0.97262629    -0.14470
C1180       C  0.52976007  0.70106927  0.97510741    -0.14470
C1181       C  0.54274005  0.72533677  0.99613680     0.07680
C1182       C  0.51229697  0.73282794  0.01552788    -0.14470
H1183       H  0.44345784  0.72754123  0.02762097     0.11660
H1184       H  0.47339655  0.67244651  0.95556201     0.11660
H1185       H  0.55341173  0.69550066  0.96006941     0.11660
H1186       H  0.52247830  0.75120897  0.03192740     0.11660
C1187       C  0.00795405  0.76281276  0.97843420    -0.14470
C1188       C  0.03716018  0.72633474  0.98404624     0.07680
C1189       C  0.01867427  0.68215193  0.98667175    -0.14470
C1190       C  0.97187546  0.67518284  0.98540888    -0.14470
C1191       C  0.94251330  0.71221286  0.98153813     0.07680
C1192       C  0.96098575  0.75580359  0.97724123    -0.14470
H1193       H  0.02110839  0.79683246  0.97593642     0.11660
H1194       H  0.04032726  0.65274464  0.99038705     0.11660
H1195       H  0.95860915  0.64147218  0.98879218     0.11660
H1196       H  0.93883506  0.78499327  0.97385978     0.11660
C1197       C  0.28845312  0.48915803  0.96986407    -0.14470
C1198       C  0.29932999  0.52173663  0.95207445     0.07680
C1199       C  0.31282602  0.50681145  0.92865182    -0.14470
C1200       C  0.31465304  0.46006299  0.92297433    -0.14470
C1201       C  0.30164641  0.42735347  0.94039078     0.07680
C1202       C  0.28899525  0.44245048  0.96399768    -0.14470
H1203       H  0.27761376  0.50001451  0.98804815     0.11660
H1204       H  0.32142903  0.53131930  0.91469618     0.11660
H1205       H  0.32423198  0.44970461  0.90452380     0.11660
H1206       H  0.27865515  0.41826697  0.97776162     0.11660
C1207       C  0.30500075  0.99748680  0.93846163    -0.14470
C1208       C  0.26444195  0.02320482  0.93457029     0.07680
C1209       C  0.22305371  0.99936852  0.93691354    -0.14470
C1210       C  0.22201546  0.95251216  0.94284774    -0.14470
C1211       C  0.26231213  0.92656902  0.94666947     0.07680
C1212       C  0.30395298  0.95015493  0.94437359    -0.14470
H1213       H  0.33770128  0.01386120  0.93681128     0.11660
H1214       H  0.19079727  0.01701943  0.93413398     0.11660
H1215       H  0.18908566  0.93657099  0.94448598     0.11660
H1216       H  0.33592416  0.93208300  0.94730993     0.11660
C1217       C  0.67858353  0.43775094  0.94094474    -0.14470
C1218       C  0.71929947  0.41112242  0.94083536     0.07680
C1219       C  0.75981883  0.43408580  0.94687707    -0.14470
C1220       C  0.75995429  0.48121266  0.95260686    -0.14470
C1221       C  0.71958742  0.50816712  0.95254565     0.07680
C1222       C  0.67872571  0.48535145  0.94668626    -0.14470
H1223       H  0.64658233  0.42194212  0.93626458     0.11660
H1224       H  0.79203618  0.41552775  0.94715189     0.11660
H1225       H  0.79224038  0.49655985  0.95716746     0.11660
H1226       H  0.64674352  0.50431429  0.94645038     0.11660
C1227       C  0.66986919  0.99429746  0.96136448    -0.14470
C1228       C  0.67648193  0.00769191  0.93703698     0.07680
C1229       C  0.68112701  0.97377226  0.91866829    -0.14470
C1230       C  0.68178799  0.92734168  0.92470731    -0.14470
C1231       C  0.67663107  0.91383197  0.94918365     0.07680
C1232       C  0.66925831  0.94787783  0.96732512    -0.14470
H1233       H  0.66619313  0.01974704  0.97582876     0.11660
H1234       H  0.68670271  0.98322977  0.89975638     0.11660
H1235       H  0.68752528  0.90209018  0.91032457     0.11660
H1236       H  0.66539097  0.93875255  0.98639917     0.11660
C1237       C  0.49659846  0.18429167  0.91095765    -0.14470
C1238       C  0.52700068  0.19339641  0.89193221     0.07680
C1239       C  0.51362082  0.22073645  0.87224355    -0.14470
C1240       C  0.47124638  0.24230708  0.87264523    -0.14470
C1241       C  0.44206407  0.23594380  0.89256808     0.07680
C1242       C  0.45389873  0.20555224  0.91121943    -0.14470
H1243       H  0.50737493  0.16432263  0.92657806     0.11660
H1244       H  0.53756176  0.22871850  0.85777963     0.11660
H1245       H  0.46180442  0.26497657  0.85785732     0.11660
H1246       H  0.43122646  0.20038115  0.92658507     0.11660
C1247       C  0.97045692  0.17613630  0.89852522    -0.14470
C1248       C  0.94538285  0.21762505  0.89926156     0.07680
C1249       C  0.96880770  0.25892276  0.89889654    -0.14470
C1250       C  0.01633709  0.25870238  0.89708176    -0.14470
C1251       C  0.04141084  0.21716882  0.89595499     0.07680
C1252       C  0.01799739  0.17590718  0.89707616    -0.14470
H1253       H  0.95322733  0.14367366  0.89893685     0.11660
H1254       H  0.95037318  0.29128544  0.89932188     0.11660
H1255       H  0.03347601  0.29120339  0.89655107     0.11660
H1256       H  0.03631608  0.14349874  0.89634765     0.11660
C1257       C  0.68197992  0.52432920  0.33019539    -0.14470
C1258       C  0.66046894  0.56122894  0.34239267     0.07680
C1259       C  0.62067884  0.58097479  0.33284848    -0.14470
C1260       C  0.60369629  0.56546205  0.31062278    -0.14470
C1261       C  0.62544299  0.52905631  0.29828071     0.07680
C1262       C  0.66390959  0.50764045  0.30840264    -0.14470
H1263       H  0.71346014  0.50961228  0.33713321     0.11660
H1264       H  0.60458020  0.61038923  0.34170867     0.11660
H1265       H  0.57290187  0.58106597  0.30335668     0.11660
H1266       H  0.67997492  0.47844090  0.29933246     0.11660
C1267       C  0.73543139  0.87245217  0.30779800    -0.14470
C1268       C  0.73041448  0.88826605  0.33200287     0.07680
C1269       C  0.70899614  0.93071607  0.33651826    -0.14470
C1270       C  0.68969101  0.95535566  0.31713064    -0.14470
C1271       C  0.69017272  0.93685723  0.29320720     0.07680
C1272       C  0.71524177  0.89634525  0.28856733    -0.14470
H1273       H  0.75100257  0.83927060  0.30404338     0.11660
H1274       H  0.70415808  0.94300379  0.35515907     0.11660
H1275       H  0.67026008  0.98625913  0.32128938     0.11660
H1276       H  0.71607836  0.88115585  0.27036871     0.11660
C1277       C  0.24150968  0.53434803  0.31195512    -0.14470
C1278       C  0.25657643  0.52924119  0.33618967     0.07680
C1279       C  0.28999697  0.49575446  0.34122161    -0.14470
C1280       C  0.31155696  0.47146626  0.32205169    -0.14470
C1281       C  0.30090295  0.48136443  0.29758873     0.07680
C1282       C  0.26402181  0.51108478  0.29273527    -0.14470
H1283       H  0.21653979  0.56066078  0.30757072     0.11660
H1284       H  0.30273744  0.49186651  0.35971448     0.11660
H1285       H  0.34054663  0.44953266  0.32622184     0.11660
H1286       H  0.25588017  0.51997293  0.27400588     0.11660
C1287       C  0.34538088  0.83460953  0.32125964    -0.14470
C1288       C  0.31315460  0.86011581  0.33471671     0.07680
C1289       C  0.29721855  0.90239729  0.32630936    -0.14470
C1290       C  0.31622648  0.92063959  0.30528215    -0.14470
C1291       C  0.34958352  0.89553340  0.29219876     0.07680
C1292       C  0.36284431  0.85184857  0.29973494    -0.14470
H1293       H  0.35642923  0.80102673  0.32722951     0.11660
H1294       H  0.27086145  0.92132596  0.33621516     0.11660
H1295       H  0.30657528  0.95493146  0.29980747     0.11660
H1296       H  0.38945525  0.83272991  0.29011842     0.11660
C1297       C  0.98291059  0.75102839  0.40811713    -0.14470
C1298       C  0.95322912  0.73321578  0.39062014     0.07680
C1299       C  0.96897880  0.70479204  0.37161697    -0.14470
C1300       C  0.01381914  0.69002487  0.37159975    -0.14470
C1301       C  0.04257694  0.70391375  0.39055850     0.07680
C1302       C  0.02801689  0.73612304  0.40811834    -0.14470
H1303       H  0.97028570  0.77261537  0.42298520     0.11660
H1304       H  0.94569943  0.69104840  0.35811145     0.11660
H1305       H  0.02539723  0.66595700  0.35759036     0.11660
H1306       H  0.05036085  0.74686023  0.42276782     0.11660
C1307       C  0.46882792  0.75820761  0.40801751    -0.14470
C1308       C  0.44300653  0.71981637  0.40219645     0.07680
C1309       C  0.46521277  0.67687264  0.39941361    -0.14470
C1310       C  0.51242280  0.67275523  0.40129450    -0.14470
C1311       C  0.53831818  0.71154776  0.40571908     0.07680
C1312       C  0.51621199  0.75414198  0.40957542    -0.14470
H1313       H  0.45265991  0.79146993  0.41047963     0.11660
H1314       H  0.44617064  0.64632161  0.39533302     0.11660
H1315       H  0.52878409  0.63978274  0.39806154     0.11660
H1316       H  0.53580323  0.78458536  0.41311074     0.11660
C1317       C  0.21190137  0.45291436  0.46116229    -0.14470
C1318       C  0.18634718  0.42279998  0.44681776     0.07680
C1319       C  0.15747029  0.43998991  0.42862649    -0.14470
C1320       C  0.15563163  0.48708506  0.42422361    -0.14470
C1321       C  0.18264998  0.51743342  0.43801895     0.07680
C1322       C  0.21016730  0.49973603  0.45682403    -0.14470
H1323       H  0.23371071  0.44000246  0.47561207     0.11660
H1324       H  0.13678839  0.41707568  0.41778994     0.11660
H1325       H  0.13402783  0.49953230  0.40960163     0.11660
H1326       H  0.23149689  0.52184887  0.46776267     0.11660
C1327       C  0.25892403  0.94708120  0.43797354    -0.14470
C1328       C  0.21816257  0.92193780  0.43686864     0.08640
C1329       C  0.17725733  0.94661765  0.44202467    -0.14470
C1330       C  0.17741279  0.99421143  0.44798952    -0.14470
C1331       C  0.21849021  0.01903634  0.44915345     0.07680
C1332       C  0.25909271  0.99414025  0.44401703    -0.14470
H1333       H  0.29136608  0.93031748  0.43412950     0.11660
H1334       H  0.14497348  0.92920279  0.44137252     0.11660
H1335       H  0.14527236  0.01146737  0.45195642     0.11660
H1336       H  0.29160790  0.01114374  0.44462457     0.11660
C1337       C  0.80538072  0.43801276  0.44692151    -0.14470
C1338       C  0.76454303  0.41410579  0.45132164     0.07680
C1339       C  0.72354387  0.43995497  0.44968360    -0.14470
C1340       C  0.72310594  0.48692239  0.44384346    -0.14470
C1341       C  0.76364944  0.51102425  0.43941320     0.07680
C1342       C  0.80494602  0.48546514  0.44111947    -0.14470
H1343       H  0.83786004  0.42008684  0.44804752     0.11660
H1344       H  0.69114345  0.42381638  0.45294506     0.11660
H1345       H  0.69040169  0.50445179  0.44278798     0.11660
H1346       H  0.83708573  0.50204839  0.43776951     0.11660
C1347       C  0.81592249  0.97706963  0.46315771    -0.14470
C1348       C  0.80712230  0.01001976  0.44503049     0.07680
C1349       C  0.79926863  0.99532903  0.42087376    -0.14470
C1350       C  0.79897974  0.94857731  0.41514731    -0.14470
C1351       C  0.80516739  0.91580053  0.43361242     0.07680
C1352       C  0.81427018  0.93044497  0.45757658    -0.14470
H1353       H  0.82167418  0.98727313  0.48202865     0.11660
H1354       H  0.79229921  0.01988043  0.40659333     0.11660
H1355       H  0.79157169  0.93799412  0.39650505     0.11660
H1356       H  0.81920937  0.90583301  0.47206066     0.11660
C1357       C  0.96988126  0.19785242  0.51218676    -0.14470
C1358       C  0.94181273  0.19969831  0.49157112     0.07680
C1359       C  0.95330175  0.22682538  0.47157420    -0.14470
C1360       C  0.99477452  0.24919035  0.47134020    -0.14470
C1361       C  0.02421925  0.24479409  0.49128560     0.07680
C1362       C  0.01088492  0.22083145  0.51214388    -0.14470
H1363       H  0.96060679  0.17775756  0.52796362     0.11660
H1364       H  0.93138860  0.22860807  0.45569377     0.11660
H1365       H  0.00560548  0.26631527  0.45485056     0.11660
H1366       H  0.03420081  0.21617801  0.52733436     0.11660
C1367       C  0.51810522  0.17604344  0.49009000    -0.14470
C1368       C  0.54073726  0.21836040  0.48882179     0.07680
C1369       C  0.51449515  0.25810543  0.48538496    -0.14470
C1370       C  0.46685107  0.25582152  0.48434950    -0.14470
C1371       C  0.44416510  0.21369329  0.48651244     0.07680
C1372       C  0.47049592  0.17372682  0.48885973    -0.14470
H1373       H  0.53720598  0.14440975  0.49233270     0.11660
H1374       H  0.53063364  0.29104043  0.48411567     0.11660
H1375       H  0.44766153  0.28744473  0.48227065     0.11660
H1376       H  0.45431009  0.14089073  0.49057376     0.11660
C1377       C  0.33928140  0.00063335  0.55963678    -0.14470
C1378       C  0.33194845  0.01067215  0.58469077     0.07680
C1379       C  0.29680695  0.04004239  0.59207036    -0.14470
C1380       C  0.27259411  0.06346784  0.57439568    -0.14470
C1381       C  0.28523168  0.05908782  0.54948044     0.07680
C1382       C  0.31662104  0.02567303  0.54199350    -0.14470
H1383       H  0.36572753  0.97679776  0.55365151     0.11660
H1384       H  0.29019649  0.04701363  0.61131437     0.11660
H1385       H  0.24732623  0.08844584  0.58052554     0.11660
H1386       H  0.32576992  0.02120286  0.52284721     0.11660
C1387       C  0.71652370  0.00945585  0.59286590    -0.14470
C1388       C  0.68311604  0.97741292  0.58667304     0.07680
C1389       C  0.67834579  0.96456793  0.56193217    -0.14470
C1390       C  0.70207083  0.98773400  0.54354126    -0.14470
C1391       C  0.73192931  0.02320991  0.54963139     0.07680
C1392       C  0.74115809  0.03170849  0.57451318    -0.14470
H1393       H  0.72009727  0.02077489  0.61172670     0.11660
H1394       H  0.65201213  0.94091162  0.55659738     0.11660
H1395       H  0.69339986  0.98135293  0.52453494     0.11660
H1396       H  0.76295628  0.05972779  0.57972818     0.11660
C1397       C  0.66858363  0.40925417  0.54325166    -0.14470
C1398       C  0.69860512  0.37516264  0.55087975     0.07680
C1399       C  0.70935145  0.37029015  0.57591418    -0.14470
C1400       C  0.68413001  0.39385991  0.59345477    -0.14470
C1401       C  0.64991975  0.42370301  0.58581027     0.07680
C1402       C  0.64494615  0.43441301  0.56079787    -0.14470
H1403       H  0.66106490  0.41404673  0.52400264     0.11660
H1404       H  0.73366211  0.34472835  0.58209803     0.11660
H1405       H  0.68899370  0.38641983  0.61269768     0.11660
H1406       H  0.61931918  0.45865246  0.55461476     0.11660
C1407       C  0.25231970  0.44153638  0.55466613    -0.14470
C1408       C  0.26619494  0.39725927  0.54694115     0.07680
C1409       C  0.30126317  0.37538997  0.55972937    -0.14470
C1410       C  0.32221455  0.39603620  0.57957216    -0.14470
C1411       C  0.30998388  0.44032543  0.58733136     0.07680
C1412       C  0.27479569  0.46339416  0.57456524    -0.14470
H1413       H  0.22539222  0.45946488  0.54501347     0.11660
H1414       H  0.31292696  0.34179533  0.55423803     0.11660
H1415       H  0.34946073  0.37737139  0.58836816     0.11660
H1416       H  0.26468647  0.49778116  0.57998315     0.11660
C1417       C  0.51877543  0.67877269  0.63251726    -0.14470
C1418       C  0.47149916  0.67407839  0.63485371     0.07680
C1419       C  0.44258290  0.71213616  0.63315263    -0.14470
C1420       C  0.46157449  0.75507871  0.63253688    -0.14470
C1421       C  0.50881518  0.75979977  0.63489902     0.07680
C1422       C  0.53778027  0.72173830  0.63316941    -0.14470
H1423       H  0.54085147  0.64915084  0.63087992     0.11660
H1424       H  0.40582818  0.70882479  0.63336588     0.11660
H1425       H  0.43946037  0.78466323  0.63097390     0.11660
H1426       H  0.57453330  0.72507645  0.63341491     0.11660
C1427       C  0.53269143  0.23811917  0.64719325    -0.14470
C1428       C  0.49322373  0.26541125  0.64836180     0.07680
C1429       C  0.45047333  0.24380416  0.65015490    -0.14470
C1430       C  0.44713634  0.19612639  0.64969042    -0.14470
C1431       C  0.48646311  0.16886718  0.64723564     0.07680
C1432       C  0.52934610  0.19047772  0.64655257    -0.14470
H1433       H  0.56595290  0.25350929  0.64588693     0.11660
H1434       H  0.41921752  0.26384349  0.65147754     0.11660
H1435       H  0.41381913  0.18073763  0.65048213     0.11660
H1436       H  0.56064743  0.17050360  0.64512186     0.11660
C1437       C  0.21010946  0.92362659  0.67643450    -0.14470
C1438       C  0.19424899  0.94206718  0.69902163     0.07680
C1439       C  0.22770420  0.96028501  0.71484747    -0.14470
C1440       C  0.27468598  0.96052793  0.70837117    -0.14470
C1441       C  0.29052559  0.94271708  0.68570128     0.07680
C1442       C  0.25723279  0.92412229  0.66988075    -0.14470
H1443       H  0.18586740  0.90981929  0.66350298     0.11660
H1444       H  0.21738806  0.97472847  0.73240555     0.11660
H1445       H  0.29877569  0.97516060  0.72112422     0.11660
H1446       H  0.26758755  0.91063016  0.65212680     0.11660
C1447       C  0.75745297  0.91222103  0.71553091    -0.14470
C1448       C  0.78982423  0.91178929  0.69637082     0.07680
C1449       C  0.77489852  0.90877036  0.67208022    -0.14470
C1450       C  0.72824820  0.90645147  0.66705561    -0.14470
C1451       C  0.69586747  0.90858331  0.68620237     0.07680
C1452       C  0.71084277  0.91135867  0.71047791    -0.14470
H1453       H  0.76820579  0.91494405  0.73447135     0.11660
H1454       H  0.79919622  0.90837651  0.65708206     0.11660
H1455       H  0.71734736  0.90493413  0.64810823     0.11660
H1456       H  0.68653889  0.91328612  0.72546260     0.11660
C1457       C  0.14256140  0.00531072  0.82535415    -0.14470
C1458       C  0.14992150  0.01325922  0.80024428     0.07680
C1459       C  0.18458722  0.04160986  0.79257598    -0.14470
C1460       C  0.20857711  0.06586501  0.80998426    -0.14470
C1461       C  0.19644887  0.06315567  0.83497713     0.07680
C1462       C  0.16521895  0.03101160  0.84276059    -0.14470
H1463       H  0.11627174  0.98248782  0.83150235     0.11660
H1464       H  0.19106567  0.04707630  0.77326568     0.11660
H1465       H  0.23346508  0.08999263  0.80358365     0.11660
H1466       H  0.15633711  0.02791521  0.86196065     0.11660
C1467       C  0.76795761  0.00653762  0.79353441    -0.14470
C1468       C  0.80399873  0.97618299  0.79909169     0.07680
C1469       C  0.81195361  0.96530951  0.82373025    -0.14470
C1470       C  0.78870831  0.98914978  0.84251172    -0.14470
C1471       C  0.75632216  0.02339752  0.83693518     0.07680
C1472       C  0.74379667  0.02947762  0.81234220    -0.14470
H1473       H  0.76185295  0.01621969  0.77470102     0.11660
H1474       H  0.84024003  0.94291332  0.82851937     0.11660
H1475       H  0.79952352  0.98436543  0.86129631     0.11660
H1476       H  0.71968934  0.05629972  0.80751544     0.11660
C1477       C  0.76603591  0.45332287  0.68427894    -0.14470
C1478       C  0.78602081  0.49044710  0.69677781     0.07680
C1479       C  0.75656062  0.52785989  0.70266605    -0.14470
C1480       C  0.70919897  0.52763304  0.69662318    -0.14470
C1481       C  0.68923088  0.49002456  0.68435357     0.07680
C1482       C  0.71909994  0.45319760  0.67814812    -0.14470
H1483       H  0.78690899  0.42388789  0.67914983     0.11660
H1484       H  0.76994212  0.55708857  0.71244769     0.11660
H1485       H  0.68808614  0.55683434  0.70183523     0.11660
H1486       H  0.70613261  0.42370454  0.66842653     0.11660
C1487       C  0.25056150  0.53436281  0.66942119    -0.14470
C1488       C  0.28355836  0.53135751  0.68808628     0.07680
C1489       C  0.26922986  0.53051309  0.71259147    -0.14470
C1490       C  0.22266950  0.53174958  0.71828459    -0.14470
C1491       C  0.18971134  0.53240482  0.69954010     0.07680
C1492       C  0.20407339  0.53417641  0.67507300    -0.14470
H1493       H  0.26071976  0.53460296  0.65030958     0.11660
H1494       H  0.29394824  0.52814577  0.72725351     0.11660
H1495       H  0.21240305  0.52981081  0.73733603     0.11660
H1496       H  0.17938557  0.53451913  0.66034201     0.11660
C1497       C  0.95636913  0.72125298  0.71994931    -0.14470
C1498       C  0.96541750  0.75291392  0.73852703     0.07680
C1499       C  0.98721462  0.73988887  0.76014916    -0.14470
C1500       C  0.00387446  0.69579860  0.76230401    -0.14470
C1501       C  0.99803342  0.66489153  0.74295755     0.07680
C1502       C  0.97266792  0.67675882  0.72225510    -0.14470
H1503       H  0.94033816  0.73183134  0.70302320     0.11660
H1504       H  0.99474233  0.76482625  0.77435919     0.11660
H1505       H  0.02293230  0.68633974  0.77852414     0.11660
H1506       H  0.96833173  0.65268905  0.70730372     0.11660
C1507       C  0.94826883  0.23786187  0.73382161    -0.14470
C1508       C  0.98758945  0.26413130  0.73312704     0.07680
C1509       C  0.03070130  0.24190635  0.73310111    -0.14470
C1510       C  0.03445822  0.19442505  0.73481448    -0.14470
C1511       C  0.99516399  0.16831038  0.73688103     0.07680
C1512       C  0.95201754  0.19042931  0.73580739    -0.14470
H1513       H  0.91479685  0.25404146  0.73391438     0.11660
H1514       H  0.06174026  0.26143704  0.73231880     0.11660
H1515       H  0.06796583  0.17837934  0.73532183     0.11660
H1516       H  0.92090588  0.17107281  0.73685204     0.11660
C1517       C  0.85542401  0.34172898  0.83198264    -0.14470
C1518       C  0.81585811  0.36051145  0.84262692     0.07680
C1519       C  0.79178236  0.39583578  0.83098523    -0.14470
C1520       C  0.80699031  0.41185417  0.80862110    -0.14470
C1521       C  0.84550024  0.39167370  0.79751198     0.07680
C1522       C  0.86972596  0.35669509  0.80923313    -0.14470
H1523       H  0.87339604  0.31339567  0.84044915     0.11660
H1524       H  0.76038638  0.40964841  0.83878635     0.11660
H1525       H  0.78916432  0.44018896  0.80007297     0.11660
H1526       H  0.90070577  0.34231302  0.80123829     0.11660
C1527       C  0.21060377  0.42033093  0.79189845    -0.14470
C1528       C  0.17700074  0.45342521  0.79774696     0.07680
C1529       C  0.17389190  0.46985655  0.82199225    -0.14470
C1530       C  0.19934116  0.44885299  0.84061814    -0.14470
C1531       C  0.22926011  0.41216623  0.83510957     0.07680
C1532       C  0.23707487  0.40041033  0.81040240    -0.14470
H1533       H  0.21324575  0.40672848  0.77339083     0.11660
H1534       H  0.14771850  0.49478021  0.82701954     0.11660
H1535       H  0.19184652  0.45773543  0.85954875     0.11660
H1536       H  0.25902275  0.37146637  0.80572322     0.11660
loop_ 
_geom_bond_atom_site_label_1 
_geom_bond_atom_site_label_2 
_geom_bond_distance 
_geom_bond_site_symmetry_2 
_ccdc_geom_bond_type 
Zr1           O2   2.438       .  S
Zr1           O3   2.435       .  S
Zr1           O4   2.474       .  S
Zr1           O7   2.483       .  S
Zr1           O9   2.392       .  S
Zr1          O10   2.387       .  S
Zr1          O11   2.418   1_655  S
Zr1          O12   2.422       .  S
O2           H58   0.990       .  S
O2           H66   0.990       .  S
O3           C23   1.282       .  A
O4           C25   1.293       .  A
O5          Zr15   2.522       .  S
O5           C24   1.301       .  A
O6          Zr14   2.380       .  S
O6           C25   1.275   1_455  A
O7           C24   1.296       .  A
O8          Zr16   2.376       .  S
O8           C23   1.266       .  A
O9          Zr14   2.391   1_655  S
O9          Zr16   2.386       .  S
O10         Zr15   2.367       .  S
O10         Zr16   2.392       .  S
O10          H45   0.963       .  S
O11         Zr14   2.404       .  S
O11         Zr31   2.394       .  S
O11          H48   0.965       .  S
O12         Zr15   2.389       .  S
O12         Zr31   2.429   1_655  S
Zr13         O38   2.448       .  S
Zr13         O32   2.405       .  S
Zr13         O40   2.399       .  S
Zr13         O28   2.459       .  S
Zr13         O19   2.452   1_455  S
Zr13         O20   2.380       .  S
Zr13         O21   2.369       .  S
Zr13         O22   2.476       .  S
Zr14         O33   2.438       .  S
Zr14         O26   2.436       .  S
Zr14         O27   2.422       .  S
Zr14         O20   2.382       .  S
Zr14         O21   2.366       .  S
Zr15         O17   2.436       .  S
Zr15         O39   2.436       .  S
Zr15         O41   2.382   1_655  S
Zr15         O19   2.421       .  S
Zr15         O22   2.443   1_655  S
Zr16         O42   2.435       .  S
Zr16         O43   2.439       .  S
Zr16         O18   2.438       .  S
Zr16         O19   2.350       .  S
Zr16         O20   2.397   1_655  S
O17          H54   0.990       .  S
O18          H49   0.990       .  S
O18          H63   0.989       .  S
O20          H46   0.967       .  S
O21         Zr31   2.384       .  S
O22         Zr31   2.361       .  S
O22          H47   0.960       .  S
C23        C1521   1.438       .  S
C24        C1478   1.535       .  S
C25        C1508   1.475       .  S
O26          H62   0.990       .  S
O27          C29   1.282       .  A
O28          C29   1.286       .  A
C29        C1528   1.480       .  S
O30         Zr31   2.442       .  S
O30          H59   0.990       .  S
Zr31         O34   2.438       .  S
Zr31         O35   2.446       .  S
Zr31         O36   2.455       .  S
O32          C37   1.280       .  A
O33          H50   0.990       .  S
O33          H65   0.990       .  S
O34          H51   0.990       .  S
O35          H55   0.990       .  S
O35          H64   0.989       .  S
O36          C37   1.289       .  A
C37        C1491   1.476       .  S
O38          H57   0.991       .  S
O38          H61   0.990       .  S
O39          H53   0.990       .  S
O39          H60   0.990       .  S
O40          C44   1.258       .  A
O41          C44   1.262       .  A
O42          H52   0.990       .  S
O43          H56   0.990   1_655  S
C44        C1501   1.431   1_455  S
Zr67         O68   2.439       .  S
Zr67         O69   2.451       .  S
Zr67         O70   2.476       .  S
Zr67         O73   2.470   1_545  S
Zr67         O75   2.390       .  S
Zr67         O76   2.379   1_545  S
Zr67         O77   2.422   1_455  S
Zr67         O78   2.423   1_545  S
O68         H124   0.990       .  S
O68         H132   0.990       .  S
O69          C89   1.290   1_545  A
O70          C91   1.293   1_455  A
O71         Zr81   2.529       .  S
O71          C90   1.301       .  A
O72         Zr80   2.385       .  S
O72          C91   1.276       .  A
O73          C90   1.291       .  A
O74         Zr82   2.342       .  S
O74          C89   1.265       .  A
O75         Zr80   2.396   1_455  S
O75         Zr82   2.391   1_545  S
O76         Zr81   2.354       .  S
O76         Zr82   2.393       .  S
O76         H111   0.964       .  S
O77         Zr80   2.401       .  S
O77         Zr97   2.399   1_545  S
O77         H114   0.965       .  S
O78         Zr81   2.375       .  S
O78         Zr97   2.429   1_455  S
Zr79        O104   2.446       .  S
Zr79         O98   2.385       .  S
Zr79        O106   2.382       .  S
Zr79         O94   2.472       .  S
Zr79         O85   2.403       .  S
Zr79         O86   2.371       .  S
Zr79         O87   2.364       .  S
Zr79         O88   2.413       .  S
Zr80         O99   2.437       .  S
Zr80         O92   2.436       .  S
Zr80         O93   2.419       .  S
Zr80         O86   2.382   1_545  S
Zr80         O87   2.370   1_545  S
Zr81         O83   2.433       .  S
Zr81        O105   2.438       .  S
Zr81        O107   2.412       .  S
Zr81         O85   2.416   1_455  S
Zr81         O88   2.405   1_455  S
Zr82        O108   2.437       .  S
Zr82        O109   2.441   1_455  S
Zr82         O84   2.441       .  S
Zr82         O85   2.359   1_455  S
Zr82         O86   2.361   1_455  S
O83         H120   0.990       .  S
O84         H115   0.990       .  S
O84         H129   0.990   1_565  S
O86         H112   0.967       .  S
O87         Zr97   2.372       .  S
O88         Zr97   2.361       .  S
O88         H113   0.966       .  S
C89        C1458   1.439   1_565  S
C90        C1438   1.533       .  S
C91        C1511   1.478       .  S
O92         H128   0.990       .  S
O93          C95   1.282   1_545  A
O94          C95   1.290       .  A
C95        C1468   1.478       .  S
O96         Zr97   2.441   1_545  S
O96         H125   0.990       .  S
Zr97        O100   2.437   1_565  S
Zr97        O101   2.445       .  S
Zr97        O102   2.468       .  S
O98         C103   1.277       .  A
O99         H116   0.990       .  S
O99         H131   0.990       .  S
O100        H117   0.990       .  S
O101        H121   0.990       .  S
O101        H130   0.989       .  S
O102        C103   1.291       .  A
C103       C1448   1.473       .  S
O104        H123   0.990       .  S
O104        H127   0.990       .  S
O105        H119   0.990       .  S
O105        H126   0.990       .  S
O106        C110   1.274       .  A
O107        C110   1.283   1_455  A
O108        H118   0.991       .  S
O109        H122   0.990       .  S
C110       C1498   1.425       .  S
Zr133       O134   2.439       .  S
Zr133       O135   2.463       .  S
Zr133       O136   2.486       .  S
Zr133       O139   2.468       .  S
Zr133       O141   2.391       .  S
Zr133       O142   2.376       .  S
Zr133       O143   2.425       .  S
Zr133       O144   2.430       .  S
O134        H190   0.990       .  S
O134        H198   0.990       .  S
O135        C155   1.292       .  A
O136        C157   1.294       .  A
O137       Zr147   2.528       .  S
O137        C156   1.301       .  A
O138       Zr146   2.391       .  S
O138        C157   1.274       .  A
O139        C156   1.292       .  A
O140       Zr148   2.331       .  S
O140        C155   1.264       .  A
O141       Zr146   2.391       .  S
O141       Zr148   2.392       .  S
O142       Zr147   2.348       .  S
O142       Zr148   2.404       .  S
O142        H177   0.963       .  S
O143       Zr146   2.404       .  S
O143       Zr163   2.402       .  S
O143        H180   0.965       .  S
O144       Zr147   2.378       .  S
O144       Zr163   2.432       .  S
Zr145       O170   2.445       .  S
Zr145       O164   2.393       .  S
Zr145       O172   2.407       .  S
Zr145       O160   2.482       .  S
Zr145       O151   2.434       .  S
Zr145       O152   2.392       .  S
Zr145       O153   2.380       .  S
Zr145       O154   2.459       .  S
Zr146       O165   2.446       .  S
Zr146       O158   2.436       .  S
Zr146       O159   2.417       .  S
Zr146       O152   2.388       .  S
Zr146       O153   2.381       .  S
Zr147       O149   2.433       .  S
Zr147       O171   2.435       .  S
Zr147       O173   2.392       .  S
Zr147       O151   2.424       .  S
Zr147       O154   2.430       .  S
Zr148       O174   2.437       .  S
Zr148       O175   2.442       .  S
Zr148       O150   2.442       .  S
Zr148       O151   2.347       .  S
Zr148       O152   2.371       .  S
O149        H186   0.990       .  S
O150        H181   0.990       .  S
O150        H195   0.990       .  S
O152        H178   0.967       .  S
O153       Zr163   2.373       .  S
O154       Zr163   2.365       .  S
O154        H179   0.967       .  S
C155       C1401   1.439       .  S
C156       C1481   1.539       .  S
C157       C1428   1.486       .  S
O158        H194   0.990       .  S
O159        C161   1.275       .  A
O160        C161   1.284       .  A
C161       C1411   1.494       .  S
O162       Zr163   2.440       .  S
O162        H191   0.991       .  S
Zr163       O166   2.437       .  S
Zr163       O167   2.441       .  S
Zr163       O168   2.464       .  S
O164        C169   1.278       .  A
O165        H182   0.990       .  S
O165        H197   0.991       .  S
O166        H183   0.990       .  S
O167        H187   0.990       .  S
O167        H196   0.989       .  S
O168        C169   1.290       .  A
C169       C1488   1.476       .  S
O170        H189   0.991       .  S
O170        H193   0.989       .  S
O171        H185   0.990       .  S
O171        H192   0.991       .  S
O172        C176   1.260       .  A
O173        C176   1.265       .  A
O174        H184   0.991       .  S
O175        H188   0.990       .  S
C176       C1418   1.446       .  S
Zr199       O200   2.439       .  S
Zr199       O201   2.464       .  S
Zr199       O202   2.497       .  S
Zr199       O205   2.485   1_545  S
Zr199       O207   2.392       .  S
Zr199       O208   2.379   1_545  S
Zr199       O209   2.423       .  S
Zr199       O210   2.431   1_545  S
O200        H256   0.990       .  S
O200        H264   0.990       .  S
O201        C221   1.292   1_545  A
O202        C223   1.297       .  A
O203       Zr213   2.516       .  S
O203        C222   1.298       .  A
O204       Zr212   2.378       .  S
O204        C223   1.275       .  A
O205        C222   1.294       .  A
O206       Zr214   2.335       .  S
O206        C221   1.264       .  A
O207       Zr212   2.396       .  S
O207       Zr214   2.389   1_545  S
O208       Zr213   2.354       .  S
O208       Zr214   2.403       .  S
O208        H243   0.963       .  S
O209       Zr212   2.401       .  S
O209       Zr229   2.400   1_545  S
O209        H246   0.965       .  S
O210       Zr213   2.379       .  S
O210       Zr229   2.432       .  S
Zr211       O236   2.451       .  S
Zr211       O230   2.394       .  S
Zr211       O238   2.407       .  S
Zr211       O226   2.481       .  S
Zr211       O217   2.433       .  S
Zr211       O218   2.375       .  S
Zr211       O219   2.372       .  S
Zr211       O220   2.456       .  S
Zr212       O231   2.438       .  S
Zr212       O224   2.436       .  S
Zr212       O225   2.411       .  S
Zr212       O218   2.382   1_545  S
Zr212       O219   2.370   1_545  S
Zr213       O215   2.434       .  S
Zr213       O237   2.435       .  S
Zr213       O239   2.392       .  S
Zr213       O217   2.420       .  S
Zr213       O220   2.427       .  S
Zr214       O240   2.437       .  S
Zr214       O241   2.441       .  S
Zr214       O216   2.441       .  S
Zr214       O217   2.348       .  S
Zr214       O218   2.371       .  S
O215        H252   0.990       .  S
O216        H247   0.990       .  S
O216        H261   0.990   1_565  S
O218        H244   0.967       .  S
O219       Zr229   2.376       .  S
O220       Zr229   2.364       .  S
O220        H245   0.968       .  S
C221       C1378   1.440   1_565  S
C222       C1441   1.531       .  S
C223       C1431   1.487       .  S
O224        H260   0.990       .  S
O225        C227   1.280   1_545  A
O226        C227   1.291       .  A
C227       C1388   1.482       .  S
O228       Zr229   2.440   1_545  S
O228        H257   0.991       .  S
Zr229       O232   2.437   1_565  S
Zr229       O233   2.442       .  S
Zr229       O234   2.461       .  S
O230        C235   1.278       .  A
O231        H248   0.990       .  S
O231        H263   0.990       .  S
O232        H249   0.990       .  S
O233        H253   0.990       .  S
O233        H262   0.989       .  S
O234        C235   1.290       .  A
C235       C1451   1.472       .  S
O236        H255   0.991       .  S
O236        H259   0.989       .  S
O237        H251   0.990       .  S
O237        H258   0.991       .  S
O238        C242   1.260       .  A
O239        C242   1.264       .  A
O240        H250   0.991       .  S
O241        H254   0.990       .  S
C242       C1421   1.445       .  S
Zr265       O266   2.439       .  S
Zr265       O267   2.459       .  S
Zr265       O268   2.492       .  S
Zr265       O271   2.466       .  S
Zr265       O273   2.389       .  S
Zr265       O274   2.377       .  S
Zr265       O275   2.416       .  S
Zr265       O276   2.427       .  S
O266        H322   0.990       .  S
O266        H330   0.990       .  S
O267        C287   1.292       .  A
O268        C289   1.296       .  A
O269       Zr279   2.520       .  S
O269        C288   1.300       .  A
O270       Zr278   2.390       .  S
O270        C289   1.277       .  A
O271        C288   1.292       .  A
O272       Zr280   2.333       .  S
O272        C287   1.264       .  A
O273       Zr278   2.394       .  S
O273       Zr280   2.388       .  S
O274       Zr279   2.354       .  S
O274       Zr280   2.403       .  S
O274        H309   0.964       .  S
O275       Zr278   2.398       .  S
O275       Zr295   2.396       .  S
O275        H312   0.966       .  S
O276       Zr279   2.387       .  S
O276       Zr295   2.434       .  S
Zr277       O302   2.450       .  S
Zr277       O296   2.396       .  S
Zr277       O304   2.430       .  S
Zr277       O292   2.485       .  S
Zr277       O283   2.446       .  S
Zr277       O284   2.383       .  S
Zr277       O285   2.379       .  S
Zr277       O286   2.481       .  S
Zr278       O297   2.437       .  S
Zr278       O290   2.436       .  S
Zr278       O291   2.410       .  S
Zr278       O284   2.386       .  S
Zr278       O285   2.376       .  S
Zr279       O281   2.435       .  S
Zr279       O303   2.436       .  S
Zr279       O305   2.371       .  S
Zr279       O283   2.423       .  S
Zr279       O286   2.445       .  S
Zr280       O306   2.437       .  S
Zr280       O307   2.441       .  S
Zr280       O282   2.441       .  S
Zr280       O283   2.344       .  S
Zr280       O284   2.373       .  S
O281        H318   0.990       .  S
O282        H313   0.990       .  S
O282        H327   0.990       .  S
O284        H310   0.967       .  S
O285       Zr295   2.383       .  S
O286       Zr295   2.358       .  S
O286        H311   0.969       .  S
C287       C1398   1.439       .  S
C288       C1338   1.535       .  S
C289       C1368   1.490       .  S
O290        H326   0.990       .  S
O291        C293   1.280       .  A
O292        C293   1.292       .  A
C293       C1391   1.481       .  S
O294       Zr295   2.440       .  S
O294        H323   0.991       .  S
Zr295       O298   2.437       .  S
Zr295       O299   2.442       .  S
Zr295       O300   2.464       .  S
O296        C301   1.280       .  A
O297        H314   0.990       .  S
O297        H329   0.990       .  S
O298        H315   0.990       .  S
O299        H319   0.990       .  S
O299        H328   0.990       .  S
O300        C301   1.291       .  A
C301       C1348   1.480       .  S
O302        H321   0.991       .  S
O302        H325   0.989       .  S
O303        H317   0.990       .  S
O303        H324   0.990       .  S
O304        C308   1.259       .  A
O305        C308   1.258       .  A
O306        H316   0.991       .  S
O307        H320   0.990       .  S
C308       C1358   1.444       .  S
Zr331       O332   2.439       .  S
Zr331       O333   2.460       .  S
Zr331       O334   2.493       .  S
Zr331       O337   2.467       .  S
Zr331       O339   2.388       .  S
Zr331       O340   2.380       .  S
Zr331       O341   2.421       .  S
Zr331       O342   2.424       .  S
O332        H388   0.990       .  S
O332        H396   0.990       .  S
O333        C353   1.292       .  A
O334        C355   1.296       .  A
O335       Zr345   2.514       .  S
O335        C354   1.298       .  A
O336       Zr344   2.395       .  S
O336        C355   1.276       .  A
O337        C354   1.292       .  A
O338       Zr346   2.340       .  S
O338        C353   1.266       .  A
O339       Zr344   2.384       .  S
O339       Zr346   2.392       .  S
O340       Zr345   2.348       .  S
O340       Zr346   2.393       .  S
O340        H375   0.964       .  S
O341       Zr344   2.409       .  S
O341       Zr361   2.401       .  S
O341        H378   0.965       .  S
O342       Zr345   2.379       .  S
O342       Zr361   2.423       .  S
Zr343       O368   2.451       .  S
Zr343       O362   2.397       .  S
Zr343       O370   2.412       .  S
Zr343       O358   2.481       .  S
Zr343       O349   2.402       .  S
Zr343       O350   2.396       .  S
Zr343       O351   2.379       .  S
Zr343       O352   2.418       .  S
Zr344       O363   2.444       .  S
Zr344       O356   2.435       .  S
Zr344       O357   2.425       .  S
Zr344       O350   2.389       .  S
Zr344       O351   2.384       .  S
Zr345       O347   2.432       .  S
Zr345       O369   2.439       .  S
Zr345       O371   2.398       .  S
Zr345       O349   2.412       .  S
Zr345       O352   2.409       .  S
Zr346       O372   2.436       .  S
Zr346       O373   2.441       .  S
Zr346       O348   2.442       .  S
Zr346       O349   2.358       .  S
Zr346       O350   2.368       .  S
O347        H384   0.990       .  S
O348        H379   0.990       .  S
O348        H393   0.990       .  S
O350        H376   0.967       .  S
O351       Zr361   2.367       .  S
O352       Zr361   2.367       .  S
O352        H377   0.967       .  S
C353       C1381   1.445       .  S
C354       C1331   1.532       .  S
C355       C1371   1.489       .  S
O356        H392   0.990       .  S
O357        C359   1.276       .  A
O358        C359   1.285       .  A
C359       C1408   1.489       .  S
O360       Zr361   2.440       .  S
O360        H389   0.991       .  S
Zr361       O364   2.437       .  S
Zr361       O365   2.442       .  S
Zr361       O366   2.457       .  S
O362        C367   1.277       .  A
O363        H380   0.990       .  S
O363        H395   0.991       .  S
O364        H381   0.990       .  S
O365        H385   0.990       .  S
O365        H394   0.989       .  S
O366        C367   1.288       .  A
C367       C1318   1.462       .  S
O368        H387   0.991       .  S
O368        H391   0.989       .  S
O369        H383   0.990       .  S
O369        H390   0.990       .  S
O370        C374   1.280       .  A
O371        C374   1.280       .  A
O372        H382   0.991       .  S
O373        H386   0.990       .  S
C374       C1361   1.436       .  S
Zr397       O398   2.438       .  S
Zr397       O399   2.430       .  S
Zr397       O400   2.466       .  S
Zr397       O403   2.460       .  S
Zr397       O405   2.389       .  S
Zr397       O406   2.386       .  S
Zr397       O407   2.410       .  S
Zr397       O408   2.418       .  S
O398        H454   0.990       .  S
O398        H462   0.990       .  S
O399        C419   1.282       .  A
O400        C421   1.291       .  A
O401       Zr411   2.523       .  S
O401        C420   1.301       .  A
O402       Zr410   2.381       .  S
O402        C421   1.276       .  A
O403        C420   1.292       .  A
O404       Zr412   2.379       .  S
O404        C419   1.267       .  A
O405       Zr410   2.389       .  S
O405       Zr412   2.388       .  S
O406       Zr411   2.367       .  S
O406       Zr412   2.388       .  S
O406        H441   0.964       .  S
O407       Zr410   2.402       .  S
O407       Zr427   2.386       .  S
O407        H444   0.965       .  S
O408       Zr411   2.392       .  S
O408       Zr427   2.425       .  S
Zr409       O434   2.450       .  S
Zr409       O428   2.411       .  S
Zr409       O436   2.386       .  S
Zr409       O424   2.462       .  S
Zr409       O415   2.450       .  S
Zr409       O416   2.382       .  S
Zr409       O417   2.367       .  S
Zr409       O418   2.471       .  S
Zr410       O429   2.437       .  S
Zr410       O422   2.436       .  S
Zr410       O423   2.412       .  S
Zr410       O416   2.382       .  S
Zr410       O417   2.369       .  S
Zr411       O413   2.435       .  S
Zr411       O435   2.436       .  S
Zr411       O437   2.389       .  S
Zr411       O415   2.417       .  S
Zr411       O418   2.445       .  S
Zr412       O438   2.435       .  S
Zr412       O439   2.439       .  S
Zr412       O414   2.438       .  S
Zr412       O415   2.352       .  S
Zr412       O416   2.396       .  S
O413        H450   0.990       .  S
O414        H445   0.990       .  S
O414        H459   0.989       .  S
O416        H442   0.967       .  S
O417       Zr427   2.384       .  S
O418       Zr427   2.358       .  S
O418        H443   0.971       .  S
C419       C1288   1.434       .  S
C420       C1328   1.533       .  S
C421       C1308   1.474       .  S
O422        H458   0.990       .  S
O423        C425   1.280       .  A
O424        C425   1.287       .  A
C425       C1278   1.476       .  S
O426       Zr427   2.440       .  S
O426        H455   0.991       .  S
Zr427       O430   2.438       .  S
Zr427       O431   2.442       .  S
Zr427       O432   2.445       .  S
O428        C433   1.281       .  A
O429        H446   0.990       .  S
O429        H461   0.990       .  S
O430        H447   0.990       .  S
O431        H451   0.990       .  S
O431        H460   0.990       .  S
O432        C433   1.288       .  A
C433       C1321   1.483       .  S
O434        H453   0.991       .  S
O434        H457   0.990       .  S
O435        H449   0.990       .  S
O435        H456   0.990       .  S
O436        C440   1.258       .  A
O437        C440   1.263       .  A
O438        H448   0.990       .  S
O439        H452   0.990       .  S
C440       C1301   1.433       .  S
Zr463       O464   2.437       .  S
Zr463       O465   2.433       .  S
Zr463       O466   2.457       .  S
Zr463       O469   2.470       .  S
Zr463       O471   2.389       .  S
Zr463       O472   2.386       .  S
Zr463       O473   2.421       .  S
Zr463       O474   2.415       .  S
O464        H520   0.990       .  S
O464        H528   0.990       .  S
O465        C485   1.283       .  A
O466        C487   1.290       .  A
O467       Zr477   2.520       .  S
O467        C486   1.300       .  A
O468       Zr476   2.388       .  S
O468        C487   1.276       .  A
O469        C486   1.293       .  A
O470       Zr478   2.384       .  S
O470        C485   1.270       .  A
O471       Zr476   2.388       .  S
O471       Zr478   2.386       .  S
O472       Zr477   2.363       .  S
O472       Zr478   2.378       .  S
O472        H507   0.963       .  S
O473       Zr476   2.406       .  S
O473       Zr493   2.395       .  S
O473        H510   0.965       .  S
O474       Zr477   2.382       .  S
O474       Zr493   2.422       .  S
Zr475       O500   2.447       .  S
Zr475       O494   2.407       .  S
Zr475       O502   2.373       .  S
Zr475       O490   2.443       .  S
Zr475       O481   2.409       .  S
Zr475       O482   2.379       .  S
Zr475       O483   2.363       .  S
Zr475       O484   2.407       .  S
Zr476       O495   2.439       .  S
Zr476       O488   2.436       .  S
Zr476       O489   2.425       .  S
Zr476       O482   2.380       .  S
Zr476       O483   2.371       .  S
Zr477       O479   2.434       .  S
Zr477       O501   2.439       .  S
Zr477       O503   2.418       .  S
Zr477       O481   2.411       .  S
Zr477       O484   2.405       .  S
Zr478       O504   2.435       .  S
Zr478       O505   2.441       .  S
Zr478       O480   2.440       .  S
Zr478       O481   2.370       .  S
Zr478       O482   2.379       .  S
O479        H516   0.990       .  S
O480        H511   0.990       .  S
O480        H525   0.990       .  S
O482        H508   0.967       .  S
O483       Zr493   2.374       .  S
O484       Zr493   2.363       .  S
O484        H509   0.966       .  S
C485       C1258   1.445       .  S
C486       C1341   1.534       .  S
C487       C1311   1.466       .  S
O488        H524   0.990       .  S
O489        C491   1.282       .  A
O490        C491   1.284       .  A
C491       C1268   1.467       .  S
O492       Zr493   2.440       .  S
O492        H521   0.990       .  S
Zr493       O496   2.437       .  S
Zr493       O497   2.444       .  S
Zr493       O498   2.455       .  S
O494        C499   1.280       .  A
O495        H512   0.991       .  S
O495        H527   0.990       .  S
O496        H513   0.990       .  S
O497        H517   0.990       .  S
O497        H526   0.989       .  S
O498        C499   1.289       .  A
C499       C1351   1.475       .  S
O500        H519   0.990       .  S
O500        H523   0.990       .  S
O501        H515   0.990       .  S
O501        H522   0.990       .  S
O502        C506   1.272       .  A
O503        C506   1.284       .  A
O504        H514   0.991       .  S
O505        H518   0.990       .  S
C506       C1298   1.426       .  S
Zr529       O530   2.437       .  S
Zr529       O531   2.431       .  S
Zr529       O532   2.456       .  S
Zr529       O535   2.459       .  S
Zr529       O537   2.385       .  S
Zr529       O538   2.385       .  S
Zr529       O539   2.415       .  S
Zr529       O540   2.416       .  S
O530        H586   0.990       .  S
O530        H594   0.990       .  S
O531        C551   1.282       .  A
O532        C553   1.290       .  A
O533       Zr543   2.517       .  S
O533        C552   1.299       .  A
O534       Zr542   2.396       .  S
O534        C553   1.278       .  A
O535        C552   1.291       .  A
O536       Zr544   2.378       .  S
O536        C551   1.269       .  A
O537       Zr542   2.386       .  S
O537       Zr544   2.385       .  S
O538       Zr543   2.358       .  S
O538       Zr544   2.380       .  S
O538        H573   0.964       .  S
O539       Zr542   2.397       .  S
O539       Zr559   2.405       .  S
O539        H576   0.966       .  S
O540       Zr543   2.378       .  S
O540       Zr559   2.419       .  S
Zr541       O566   2.448       .  S
Zr541       O560   2.417       .  S
Zr541       O568   2.404       .  S
Zr541       O556   2.471       .  S
Zr541       O547   2.409       .  S
Zr541       O548   2.383       .  S
Zr541       O549   2.368       .  S
Zr541       O550   2.411       .  S
Zr542       O561   2.437       .  S
Zr542       O554   2.436       .  S
Zr542       O555   2.416       .  S
Zr542       O548   2.388       .  S
Zr542       O549   2.371       .  S
Zr543       O545   2.433       .  S
Zr543       O567   2.439       .  S
Zr543       O569   2.405       .  S
Zr543       O547   2.412       .  S
Zr543       O550   2.408       .  S
Zr544       O570   2.436       .  S
Zr544       O571   2.440       .  S
Zr544       O546   2.440       .  S
Zr544       O547   2.365       .  S
Zr544       O548   2.383       .  S
O545        H582   0.990       .  S
O546        H577   0.990       .  S
O546        H591   0.990       .  S
O548        H574   0.967       .  S
O549       Zr559   2.372       .  S
O550       Zr559   2.369       .  S
O550        H575   0.966       .  S
C551       C1518   1.440       .  S
C552       C1218   1.527       .  S
C553       C1248   1.476       .  S
O554        H590   0.990       .  S
O555        C557   1.282       .  A
O556        C557   1.290       .  A
C557       C1471   1.480       .  S
O558       Zr559   2.441       .  S
O558        H587   0.990       .  S
Zr559       O562   2.437       .  S
Zr559       O563   2.444       .  S
Zr559       O564   2.456       .  S
O560        C565   1.282       .  A
O561        H578   0.990       .  S
O561        H593   0.990       .  S
O562        H579   0.990       .  S
O563        H583   0.990       .  S
O563        H592   0.989       .  S
O564        C565   1.289       .  A
C565       C1228   1.481       .  S
O566        H585   0.991       .  S
O566        H589   0.990       .  S
O567        H581   0.990       .  S
O567        H588   0.990       .  S
O568        C572   1.279       .  A
O569        C572   1.281       .  A
O570        H580   0.991       .  S
O571        H584   0.990       .  S
C572       C1238   1.435       .  S
Zr595       O596   2.439       .  S
Zr595       O597   2.454       .  S
Zr595       O598   2.462       .  S
Zr595       O601   2.449       .  S
Zr595       O603   2.385       .  S
Zr595       O604   2.375       .  S
Zr595       O605   2.416       .  S
Zr595       O606   2.422       .  S
O596        H652   0.990       .  S
O596        H660   0.990       .  S
O597        C617   1.290       .  A
O598        C619   1.290       .  A
O599       Zr609   2.527       .  S
O599        C618   1.301       .  A
O600       Zr608   2.396       .  S
O600        C619   1.278       .  A
O601        C618   1.289       .  A
O602       Zr610   2.340       .  S
O602        C617   1.266       .  A
O603       Zr608   2.392       .  S
O603       Zr610   2.386       .  S
O604       Zr609   2.357       .  S
O604       Zr610   2.399       .  S
O604        H639   0.964       .  S
O605       Zr608   2.394       .  S
O605       Zr625   2.398       .  S
O605        H642   0.966       .  S
O606       Zr609   2.382       .  S
O606       Zr625   2.434       .  S
Zr607       O632   2.451       .  S
Zr607       O626   2.405       .  S
Zr607       O634   2.423       .  S
Zr607       O622   2.477       .  S
Zr607       O613   2.447       .  S
Zr607       O614   2.385       .  S
Zr607       O615   2.377       .  S
Zr607       O616   2.477       .  S
Zr608       O627   2.437       .  S
Zr608       O620   2.436       .  S
Zr608       O621   2.406       .  S
Zr608       O614   2.388       .  S
Zr608       O615   2.375       .  S
Zr609       O611   2.435       .  S
Zr609       O633   2.436       .  S
Zr609       O635   2.375       .  S
Zr609       O613   2.422       .  S
Zr609       O616   2.445       .  S
Zr610       O636   2.436       .  S
Zr610       O637   2.441       .  S
Zr610       O612   2.441       .  S
Zr610       O613   2.346       .  S
Zr610       O614   2.375       .  S
O611        H648   0.990       .  S
O612        H643   0.990       .  S
O612        H657   0.990       .  S
O614        H640   0.967       .  S
O615       Zr625   2.381       .  S
O616       Zr625   2.360       .  S
O616        H641   0.962       .  S
C617       C1461   1.446       .  S
C618       C1208   1.533       .  S
C619       C1251   1.479       .  S
O620        H656   0.990       .  S
O621        C623   1.280       .  A
O622        C623   1.290       .  A
C623       C1531   1.475       .  S
O624       Zr625   2.442       .  S
O624        H653   0.990       .  S
Zr625       O628   2.437       .  S
Zr625       O629   2.446       .  S
Zr625       O630   2.465       .  S
O626        C631   1.281       .  A
O627        H644   0.990       .  S
O627        H659   0.990       .  S
O628        H645   0.990       .  S
O629        H649   0.990       .  S
O629        H658   0.989       .  S
O630        C631   1.291       .  A
C631       C1201   1.485       .  S
O632        H651   0.991       .  S
O632        H655   0.989       .  S
O633        H647   0.990       .  S
O633        H654   0.990       .  S
O634        C638   1.260       .  A
O635        C638   1.259       .  A
O636        H646   0.991       .  S
O637        H650   0.990       .  S
C638       C1241   1.443       .  S
Zr661       O662   2.437       .  S
Zr661       O663   2.446   1_556  S
Zr661       O664   2.493       .  S
Zr661       O667   2.473       .  S
Zr661       O669   2.393   1_556  S
Zr661       O670   2.385       .  S
Zr661       O671   2.415       .  S
Zr661       O672   2.422       .  S
O662        H718   0.990       .  S
O662        H726   0.990       .  S
O663        C683   1.288       .  A
O664        C685   1.296       .  A
O665       Zr675   2.507       .  S
O665        C684   1.298       .  A
O666       Zr674   2.353   1_556  S
O666        C685   1.271       .  A
O667        C684   1.294       .  A
O668       Zr676   2.384       .  S
O668        C683   1.277       .  A
O669       Zr674   2.395       .  S
O669       Zr676   2.386       .  S
O670       Zr675   2.359       .  S
O670       Zr676   2.371   1_556  S
O670        H705   0.963       .  S
O671       Zr674   2.396   1_556  S
O671       Zr691   2.396       .  S
O671        H708   0.966       .  S
O672       Zr675   2.382       .  S
O672       Zr691   2.422       .  S
Zr673       O698   2.448       .  S
Zr673       O692   2.418   1_554  S
Zr673       O700   2.386   1_554  S
Zr673       O688   2.470       .  S
Zr673       O679   2.413       .  S
Zr673       O680   2.383       .  S
Zr673       O681   2.362   1_554  S
Zr673       O682   2.411   1_554  S
Zr674       O693   2.437   1_554  S
Zr674       O686   2.435       .  S
Zr674       O687   2.400       .  S
Zr674       O680   2.375       .  S
Zr674       O681   2.364   1_554  S
Zr675       O677   2.434       .  S
Zr675       O699   2.438       .  S
Zr675       O701   2.414       .  S
Zr675       O679   2.411   1_556  S
Zr675       O682   2.402       .  S
Zr676       O702   2.436       .  S
Zr676       O703   2.442       .  S
Zr676       O678   2.439       .  S
Zr676       O679   2.379       .  S
Zr676       O680   2.367       .  S
O677        H714   0.990       .  S
O678        H709   0.990       .  S
O678        H723   0.990       .  S
O680        H706   0.967       .  S
O681       Zr691   2.379       .  S
O682       Zr691   2.362       .  S
O682        H707   0.965       .  S
C683       C1158   1.468       .  S
C684       C1211   1.532       .  S
C685       C1188   1.479       .  S
O686        H722   0.990       .  S
O687        C689   1.278       .  A
O688        C689   1.289       .  A
C689       C1171   1.467       .  S
O690       Zr691   2.442       .  S
O690        H719   0.990       .  S
Zr691       O694   2.438       .  S
Zr691       O695   2.445       .  S
Zr691       O696   2.456       .  S
O692        C697   1.282       .  A
O693        H710   0.990   1_556  S
O693        H725   0.990       .  S
O694        H711   0.990       .  S
O695        H715   0.990       .  S
O695        H724   0.989       .  S
O696        C697   1.289       .  A
C697       C1198   1.476       .  S
O698        H717   0.990       .  S
O698        H721   0.990       .  S
O699        H713   0.990       .  S
O699        H720   0.990       .  S
O700        C704   1.275       .  A
O701        C704   1.283       .  A
O702        H712   0.991       .  S
O703        H716   0.990       .  S
C704       C1178   1.428       .  S
Zr727       O728   2.438       .  S
Zr727       O729   2.465   1_556  S
Zr727       O730   2.477       .  S
Zr727       O733   2.466       .  S
Zr727       O735   2.393   1_556  S
Zr727       O736   2.384       .  S
Zr727       O737   2.426       .  S
Zr727       O738   2.428       .  S
O728        H784   0.990       .  S
O728        H792   0.990       .  S
O729        C749   1.289       .  A
O730        C751   1.293       .  A
O731       Zr741   2.506       .  S
O731        C750   1.298       .  A
O732       Zr740   2.376   1_556  S
O732        C751   1.272       .  A
O733        C750   1.293       .  A
O734       Zr742   2.354       .  S
O734        C749   1.271       .  A
O735       Zr740   2.392       .  S
O735       Zr742   2.386       .  S
O736       Zr741   2.376       .  S
O736       Zr742   2.378   1_556  S
O736        H771   0.965   1_556  S
O737       Zr740   2.406   1_556  S
O737       Zr757   2.392       .  S
O737        H774   0.965       .  S
O738       Zr741   2.385       .  S
O738       Zr757   2.433       .  S
Zr739       O764   2.445       .  S
Zr739       O758   2.421   1_554  S
Zr739       O766   2.406       .  S
Zr739       O754   2.461       .  S
Zr739       O745   2.457       .  S
Zr739       O746   2.403       .  S
Zr739       O747   2.377   1_554  S
Zr739       O748   2.475   1_554  S
Zr740       O759   2.444       .  S
Zr740       O752   2.434       .  S
Zr740       O753   2.411       .  S
Zr740       O746   2.385       .  S
Zr740       O747   2.382   1_554  S
Zr741       O743   2.436       .  S
Zr741       O765   2.436       .  S
Zr741       O767   2.369       .  S
Zr741       O745   2.423   1_556  S
Zr741       O748   2.444       .  S
Zr742       O768   2.436       .  S
Zr742       O769   2.439       .  S
Zr742       O744   2.438       .  S
Zr742       O745   2.350       .  S
Zr742       O746   2.371       .  S
O743        H780   0.990       .  S
O744        H775   0.990       .  S
O744        H789   0.990       .  S
O746        H772   0.966       .  S
O747       Zr757   2.384       .  S
O748       Zr757   2.363       .  S
O748        H773   0.967       .  S
C749       C1148   1.468       .  S
C750       C1221   1.528       .  S
C751       C1191   1.471       .  S
O752        H788   0.990       .  S
O753        C755   1.272       .  A
O754        C755   1.280       .  A
C755       C1141   1.475       .  S
O756       Zr757   2.442       .  S
O756        H785   0.990       .  S
Zr757       O760   2.439       .  S
Zr757       O761   2.446       .  S
Zr757       O762   2.455       .  S
O758        C763   1.282       .  A
O759        H776   0.990       .  S
O759        H791   0.991   1_554  S
O760        H777   0.990       .  S
O761        H781   0.990       .  S
O761        H790   0.989       .  S
O762        C763   1.288       .  A
C763       C1231   1.488       .  S
O764        H783   0.991       .  S
O764        H787   0.991       .  S
O765        H779   0.990       .  S
O765        H786   0.990       .  S
O766        C770   1.255   1_554  A
O767        C770   1.259       .  A
O768        H778   0.991       .  S
O769        H782   0.990       .  S
C770       C1181   1.435       .  S
Zr793       O794   2.438       .  S
Zr793       O795   2.435       .  S
Zr793       O796   2.457       .  S
Zr793       O799   2.466       .  S
Zr793       O801   2.388       .  S
Zr793       O802   2.379       .  S
Zr793       O803   2.412       .  S
Zr793       O804   2.414       .  S
O794        H850   0.990       .  S
O794        H858   0.990       .  S
O795        C815   1.282       .  A
O796        C817   1.290       .  A
O797       Zr807   2.481       .  S
O797        C816   1.294       .  A
O798       Zr806   2.402       .  S
O798        C817   1.279       .  A
O799        C816   1.293       .  A
O800       Zr808   2.386       .  S
O800        C815   1.268       .  A
O801       Zr806   2.387       .  S
O801       Zr808   2.387       .  S
O802       Zr807   2.364       .  S
O802       Zr808   2.376       .  S
O802        H837   0.964       .  S
O803       Zr806   2.403       .  S
O803       Zr823   2.387       .  S
O803        H840   0.965       .  S
O804       Zr807   2.383       .  S
O804       Zr823   2.413       .  S
Zr805       O830   2.441       .  S
Zr805       O824   2.442       .  S
Zr805       O832   2.421       .  S
Zr805       O820   2.472       .  S
Zr805       O811   2.415       .  S
Zr805       O812   2.401       .  S
Zr805       O813   2.372       .  S
Zr805       O814   2.409       .  S
Zr806       O825   2.436       .  S
Zr806       O818   2.436       .  S
Zr806       O819   2.415       .  S
Zr806       O812   2.394       .  S
Zr806       O813   2.376       .  S
Zr807       O809   2.434       .  S
Zr807       O831   2.439       .  S
Zr807       O833   2.391       .  S
Zr807       O811   2.410       .  S
Zr807       O814   2.426       .  S
Zr808       O834   2.436       .  S
Zr808       O835   2.439       .  S
Zr808       O810   2.439       .  S
Zr808       O811   2.369       .  S
Zr808       O812   2.384       .  S
O809        H846   0.991       .  S
O810        H841   0.990       .  S
O810        H855   0.989       .  S
O812        H838   0.966       .  S
O813       Zr823   2.376       .  S
O814       Zr823   2.356       .  S
O814        H839   0.966       .  S
C815       C1261   1.443       .  S
C816       C1098   1.515       .  S
C817       C1128   1.474       .  S
O818        H854   0.990       .  S
O819        C821   1.281       .  A
O820        C821   1.289       .  A
C821       C1281   1.475       .  S
O822       Zr823   2.439       .  S
O822        H851   0.990       .  S
Zr823       O826   2.437       .  S
Zr823       O827   2.443       .  S
Zr823       O828   2.438       .  S
O824        C829   1.286       .  A
O825        H842   0.990       .  S
O825        H857   0.990       .  S
O826        H843   0.990       .  S
O827        H847   0.990       .  S
O827        H856   0.990       .  S
O828        C829   1.286       .  A
C829       C1108   1.493       .  S
O830        H849   0.992       .  S
O830        H853   0.989       .  S
O831        H845   0.990       .  S
O831        H852   0.990       .  S
O832        C836   1.281       .  A
O833        C836   1.271       .  A
O834        H844   0.991       .  S
O835        H848   0.990       .  S
C836       C1118   1.453       .  S
Zr859       O860   2.437       .  S
Zr859       O861   2.418       .  S
Zr859       O862   2.455       .  S
Zr859       O865   2.454       .  S
Zr859       O867   2.388       .  S
Zr859       O868   2.384       .  S
Zr859       O869   2.415       .  S
Zr859       O870   2.411       .  S
O860        H916   0.990       .  S
O860        H924   0.990       .  S
O861        C881   1.281       .  A
O862        C883   1.289       .  A
O863       Zr873   2.500       .  S
O863        C882   1.296   1_545  A
O864       Zr872   2.395       .  S
O864        C883   1.277       .  A
O865        C882   1.289       .  A
O866       Zr874   2.384       .  S
O866        C881   1.272       .  A
O867       Zr872   2.384       .  S
O867       Zr874   2.378       .  S
O868       Zr873   2.369   1_565  S
O868       Zr874   2.382       .  S
O868        H903   0.964       .  S
O869       Zr872   2.402       .  S
O869       Zr889   2.399       .  S
O869        H906   0.966       .  S
O870       Zr873   2.382   1_565  S
O870       Zr889   2.413       .  S
Zr871       O896   2.454       .  S
Zr871       O890   2.445       .  S
Zr871       O898   2.407       .  S
Zr871       O886   2.443   1_545  S
Zr871       O877   2.409       .  S
Zr871       O878   2.408   1_545  S
Zr871       O879   2.368   1_545  S
Zr871       O880   2.420       .  S
Zr872       O891   2.441       .  S
Zr872       O884   2.436       .  S
Zr872       O885   2.418       .  S
Zr872       O878   2.388       .  S
Zr872       O879   2.369       .  S
Zr873       O875   2.437       .  S
Zr873       O897   2.440       .  S
Zr873       O899   2.421       .  S
Zr873       O877   2.402       .  S
Zr873       O880   2.413       .  S
Zr874       O900   2.436   1_565  S
Zr874       O901   2.439   1_565  S
Zr874       O876   2.439       .  S
Zr874       O877   2.353   1_565  S
Zr874       O878   2.392       .  S
O875        H912   0.991       .  S
O876        H907   0.990       .  S
O876        H921   0.990       .  S
O878        H904   0.967       .  S
O879       Zr889   2.366       .  S
O880       Zr889   2.374   1_545  S
O880        H905   0.966       .  S
C881       C1291   1.439       .  S
C882       C1078   1.506   1_565  S
C883       C1131   1.475       .  S
O884        H920   0.990       .  S
O885        C887   1.277       .  A
O886        C887   1.282       .  A
C887       C1271   1.479       .  S
O888       Zr889   2.441       .  S
O888        H917   0.990       .  S
Zr889       O892   2.438       .  S
Zr889       O893   2.443   1_565  S
Zr889       O894   2.443       .  S
O890        C895   1.287       .  A
O891        H908   0.990       .  S
O891        H923   0.990       .  S
O892        H909   0.990       .  S
O893        H913   0.990       .  S
O893        H922   0.990       .  S
O894        C895   1.288   1_565  A
C895       C1088   1.495       .  S
O896        H915   0.990       .  S
O896        H919   0.989       .  S
O897        H911   0.990       .  S
O897        H918   0.990       .  S
O898        C902   1.276       .  A
O899        C902   1.275       .  A
O900        H910   0.990       .  S
O901        H914   0.990       .  S
C902       C1121   1.440       .  S
Zr925       O926   2.444       .  S
Zr925       O927   2.477       .  S
Zr925       O928   2.419       .  S
Zr925       O931   2.456       .  S
Zr925       O933   2.392       .  S
Zr925       O934   2.449       .  S
Zr925       O935   2.431       .  S
Zr925       O936   2.457       .  S
O926        H982   0.991       .  S
O926        H990   0.990       .  S
O927        C947   1.292       .  A
O928        C949   1.279       .  A
O929       Zr939   2.373       .  S
O929        C948   1.260       .  A
O930       Zr938   2.381   1_655  S
O930        C949   1.275       .  A
O931        C948   1.255       .  A
O932       Zr940   2.473       .  S
O932        C947   1.292       .  A
O933       Zr938   2.403   1_655  S
O933       Zr940   2.377       .  S
O934       Zr939   2.396       .  S
O934       Zr940   2.376       .  S
O934        H969   0.966       .  S
O935       Zr938   2.404   1_655  S
O935       Zr955   2.411   1_655  S
O935        H972   0.966       .  S
O936       Zr939   2.387       .  S
O936       Zr955   2.364   1_655  S
Zr937       O962   2.440       .  S
Zr937       O956   2.461       .  S
Zr937       O964   2.452       .  S
Zr937       O952   2.439       .  S
Zr937       O943   2.411   1_455  S
Zr937       O944   2.419       .  S
Zr937       O945   2.366       .  S
Zr937       O946   2.385       .  S
Zr938       O957   2.441       .  S
Zr938       O950   2.435       .  S
Zr938       O951   2.444       .  S
Zr938       O944   2.382       .  S
Zr938       O945   2.368       .  S
Zr939       O941   2.435       .  S
Zr939       O963   2.441       .  S
Zr939       O965   2.405       .  S
Zr939       O943   2.386       .  S
Zr939       O946   2.385   1_655  S
Zr940       O966   2.435       .  S
Zr940       O967   2.440       .  S
Zr940       O942   2.442       .  S
Zr940       O943   2.419       .  S
Zr940       O944   2.427   1_655  S
O941        H978   0.990       .  S
O942        H973   0.990       .  S
O942        H987   0.990       .  S
O944        H970   0.968       .  S
O945       Zr955   2.361       .  S
O946       Zr955   2.400       .  S
O946        H971   0.966       .  S
C947       C1101   1.504       .  S
C948       C1151   1.449       .  S
C949       C1058   1.437       .  S
O950        H986   0.990       .  S
O951        C953   1.286       .  A
O952        C953   1.287       .  A
C953       C1111   1.491       .  S
O954       Zr955   2.441   1_655  S
O954        H983   0.990   1_655  S
Zr955       O958   2.437       .  S
Zr955       O959   2.444       .  S
Zr955       O960   2.413       .  S
O956        C961   1.291       .  A
O957        H974   0.990       .  S
O957        H989   0.990       .  S
O958        H975   0.990       .  S
O959        H979   0.990       .  S
O959        H988   0.990       .  S
O960        C961   1.281       .  A
C961       C1168   1.491       .  S
O962        H981   0.990       .  S
O962        H985   0.990       .  S
O963        H977   0.989       .  S
O963        H984   0.989       .  S
O964        C968   1.289   1_455  A
O965        C968   1.279       .  A
O966        H976   0.991       .  S
O967        H980   0.990       .  S
C968       C1068   1.482       .  S
Zr991       O992   2.444       .  S
Zr991       O993   2.466       .  S
Zr991       O994   2.410       .  S
Zr991       O997   2.425       .  S
Zr991       O999   2.397       .  S
Zr991      O1000   2.386   1_545  S
Zr991      O1001   2.447   1_455  S
Zr991      O1002   2.396   1_545  S
O992       H1048   0.990       .  S
O992       H1056   0.991       .  S
O993       C1013   1.290       .  A
O994       C1015   1.272       .  A
O995      Zr1005   2.411       .  S
O995       C1014   1.282       .  A
O996      Zr1004   2.396   1_455  S
O996       C1015   1.267       .  A
O997       C1014   1.279   1_545  A
O998      Zr1006   2.480       .  S
O998       C1013   1.293   1_565  A
O999      Zr1004   2.414   1_455  S
O999      Zr1006   2.356   1_545  S
O1000     Zr1005   2.380       .  S
O1000     Zr1006   2.386       .  S
O1000      H1035   0.964       .  S
O1001     Zr1004   2.419       .  S
O1001     Zr1021   2.396       .  S
O1001      H1038   0.965       .  S
O1002     Zr1005   2.370       .  S
O1002     Zr1021   2.375   1_465  S
Zr1003     O1028   2.442       .  S
Zr1003     O1022   2.472       .  S
Zr1003     O1030   2.461       .  S
Zr1003     O1018   2.442       .  S
Zr1003     O1009   2.409   1_655  S
Zr1003     O1010   2.426       .  S
Zr1003     O1011   2.371       .  S
Zr1003     O1012   2.380       .  S
Zr1004     O1023   2.444       .  S
Zr1004     O1016   2.434       .  S
Zr1004     O1017   2.445       .  S
Zr1004     O1010   2.392   1_545  S
Zr1004     O1011   2.373   1_545  S
Zr1005     O1007   2.437       .  S
Zr1005     O1029   2.439       .  S
Zr1005     O1031   2.403       .  S
Zr1005     O1009   2.382       .  S
Zr1005     O1012   2.382   1_455  S
Zr1006     O1032   2.435       .  S
Zr1006     O1033   2.439       .  S
Zr1006     O1008   2.441   1_565  S
Zr1006     O1009   2.406       .  S
Zr1006     O1010   2.441   1_455  S
O1007      H1044   0.990       .  S
O1008      H1039   0.990   1_545  S
O1008      H1053   0.990       .  S
O1010      H1036   0.968       .  S
O1011     Zr1021   2.365   1_565  S
O1012     Zr1021   2.389   1_565  S
O1012      H1037   0.966       .  S
C1013      C1081   1.516       .  S
C1014      C1161   1.448       .  S
C1015      C1061   1.456       .  S
O1016      H1052   0.990       .  S
O1017      C1019   1.286   1_545  A
O1018      C1019   1.287       .  A
C1019      C1091   1.491   1_565  S
O1020     Zr1021   2.440       .  S
O1020      H1049   0.990       .  S
Zr1021     O1024   2.437       .  S
Zr1021     O1025   2.443   1_545  S
Zr1021     O1026   2.409   1_545  S
O1022      C1027   1.293       .  A
O1023      H1040   0.990       .  S
O1023      H1055   0.987       .  S
O1024      H1041   0.990       .  S
O1025      H1045   0.990       .  S
O1025      H1054   0.989       .  S
O1026      C1027   1.281       .  A
C1027      C1138   1.495       .  S
O1028      H1047   0.990       .  S
O1028      H1051   0.990       .  S
O1029      H1043   0.990       .  S
O1029      H1050   0.990       .  S
O1030      C1034   1.291       .  A
O1031      C1034   1.280   1_455  A
O1032      H1042   0.991       .  S
O1033      H1046   0.990       .  S
C1034      C1071   1.484       .  S
C1057      C1058   1.398       .  A
C1057      C1062   1.386   1_655  A
C1057      H1063   1.084       .  S
C1058      C1059   1.399       .  A
C1059      C1060   1.392       .  A
C1059      H1064   1.083       .  S
C1060      C1061   1.402   1_655  A
C1060      H1065   1.083       .  S
C1061      C1062   1.403       .  A
C1062      H1066   1.083       .  S
C1067      C1068   1.401   1_455  A
C1067      C1072   1.399       .  A
C1067      H1073   1.083       .  S
C1068      C1069   1.411       .  A
C1069      C1070   1.398       .  A
C1069      H1074   1.083       .  S
C1070      C1071   1.401       .  A
C1070      H1075   1.083       .  S
C1071      C1072   1.413   1_655  A
C1072      H1076   1.083       .  S
C1077      C1078   1.409   1_565  A
C1077      C1082   1.411       .  A
C1077      H1083   1.083       .  S
C1078      C1079   1.408       .  A
C1079      C1080   1.415       .  A
C1079      H1084   1.083       .  S
C1080      C1081   1.416       .  A
C1080      H1085   1.083       .  S
C1081      C1082   1.411   1_545  A
C1082      H1086   1.083       .  S
C1087      C1088   1.408   1_565  A
C1087      C1092   1.398       .  A
C1087      H1093   1.083       .  S
C1088      C1089   1.411       .  A
C1089      C1090   1.408       .  A
C1089      H1094   1.083       .  S
C1090      C1091   1.408       .  A
C1090      H1095   1.083       .  S
C1091      C1092   1.405   1_545  A
C1092      H1096   1.083       .  S
C1097      C1098   1.410       .  A
C1097      C1102   1.407       .  A
C1097      H1103   1.083       .  S
C1098      C1099   1.415       .  A
C1099      C1100   1.418       .  A
C1099      H1104   1.083       .  S
C1100      C1101   1.409       .  A
C1100      H1105   1.083       .  S
C1101      C1102   1.407       .  A
C1102      H1106   1.083       .  S
C1107      C1108   1.410       .  A
C1107      C1112   1.409       .  A
C1107      H1113   1.083       .  S
C1108      C1109   1.407       .  A
C1109      C1110   1.396       .  A
C1109      H1114   1.083       .  S
C1110      C1111   1.405       .  A
C1110      H1115   1.083       .  S
C1111      C1112   1.409       .  A
C1112      H1116   1.083       .  S
C1117      C1118   1.406       .  A
C1117      C1122   1.381       .  A
C1117      H1123   1.083       .  S
C1118      C1119   1.400       .  A
C1119      C1120   1.386       .  A
C1119      H1124   1.083       .  S
C1120      C1121   1.402       .  A
C1120      H1125   1.084       .  S
C1121      C1122   1.393       .  A
C1122      H1126   1.084       .  S
C1127      C1128   1.398       .  A
C1127      C1132   1.394       .  A
C1127      H1133   1.083       .  S
C1128      C1129   1.411       .  A
C1129      C1130   1.397       .  A
C1129      H1134   1.083       .  S
C1130      C1131   1.399       .  A
C1130      H1135   1.083       .  S
C1131      C1132   1.411       .  A
C1132      H1136   1.083       .  S
C1137      C1138   1.407       .  A
C1137      C1142   1.407       .  A
C1137      H1143   1.083       .  S
C1138      C1139   1.413       .  A
C1139      C1140   1.396       .  A
C1139      H1144   1.083       .  S
C1140      C1141   1.398       .  A
C1140      H1145   1.084       .  S
C1141      C1142   1.408       .  A
C1142      H1146   1.083       .  S
C1147      C1148   1.409       .  A
C1147      C1152   1.376       .  A
C1147      H1153   1.083       .  S
C1148      C1149   1.404       .  A
C1149      C1150   1.406       .  A
C1149      H1154   1.083       .  S
C1150      C1151   1.407       .  A
C1150      H1155   1.083       .  S
C1151      C1152   1.386       .  A
C1152      H1156   1.082       .  S
C1157      C1158   1.410       .  A
C1157      C1162   1.389       .  A
C1157      H1163   1.084       .  S
C1158      C1159   1.399       .  A
C1159      C1160   1.393       .  A
C1159      H1164   1.083       .  S
C1160      C1161   1.404       .  A
C1160      H1165   1.084       .  S
C1161      C1162   1.395       .  A
C1162      H1166   1.084       .  S
C1167      C1168   1.412       .  A
C1167      C1172   1.398       .  A
C1167      H1173   1.083       .  S
C1168      C1169   1.405       .  A
C1169      C1170   1.402       .  A
C1169      H1174   1.083       .  S
C1170      C1171   1.406       .  A
C1170      H1175   1.084       .  S
C1171      C1172   1.400       .  A
C1172      H1176   1.084       .  S
C1177      C1178   1.396   1_554  A
C1177      C1182   1.379       .  A
C1177      H1183   1.084       .  S
C1178      C1179   1.396       .  A
C1179      C1180   1.390       .  A
C1179      H1184   1.083       .  S
C1180      C1181   1.400       .  A
C1180      H1185   1.082       .  S
C1181      C1182   1.395   1_556  A
C1182      H1186   1.084       .  S
C1187      C1188   1.395       .  A
C1187      C1192   1.397   1_455  A
C1187      H1193   1.083       .  S
C1188      C1189   1.418       .  A
C1189      C1190   1.392   1_455  A
C1189      H1194   1.083       .  S
C1190      C1191   1.392       .  A
C1190      H1195   1.083       .  S
C1191      C1192   1.415       .  A
C1192      H1196   1.083       .  S
C1197      C1198   1.407       .  A
C1197      C1202   1.400       .  A
C1197      H1203   1.084       .  S
C1198      C1199   1.400       .  A
C1199      C1200   1.400       .  A
C1199      H1204   1.083       .  S
C1200      C1201   1.412       .  A
C1200      H1205   1.083       .  S
C1201      C1202   1.404       .  A
C1202      H1206   1.083       .  S
C1207      C1208   1.416   1_565  A
C1207      C1212   1.426       .  A
C1207      H1213   1.082   1_565  S
C1208      C1209   1.415   1_545  A
C1209      C1210   1.413       .  A
C1209      H1214   1.083   1_565  S
C1210      C1211   1.412       .  A
C1210      H1215   1.083       .  S
C1211      C1212   1.418       .  A
C1212      H1216   1.083       .  S
C1217      C1218   1.416       .  A
C1217      C1222   1.425       .  A
C1217      H1223   1.083       .  S
C1218      C1219   1.412       .  A
C1219      C1220   1.411       .  A
C1219      H1224   1.083       .  S
C1220      C1221   1.412       .  A
C1220      H1225   1.083       .  S
C1221      C1222   1.416       .  A
C1222      H1226   1.083       .  S
C1227      C1228   1.401   1_565  A
C1227      C1232   1.400       .  A
C1227      H1233   1.083   1_565  S
C1228      C1229   1.408   1_545  A
C1229      C1230   1.401       .  A
C1229      H1234   1.084       .  S
C1230      C1231   1.405       .  A
C1230      H1235   1.083       .  S
C1231      C1232   1.411       .  A
C1232      H1236   1.083       .  S
C1237      C1238   1.397       .  A
C1237      C1242   1.390       .  A
C1237      H1243   1.083       .  S
C1238      C1239   1.400       .  A
C1239      C1240   1.385       .  A
C1239      H1244   1.084       .  S
C1240      C1241   1.397       .  A
C1240      H1245   1.084       .  S
C1241      C1242   1.399       .  A
C1242      H1246   1.082       .  S
C1247      C1248   1.410       .  A
C1247      C1252   1.396   1_655  A
C1247      H1253   1.083       .  S
C1248      C1249   1.400       .  A
C1249      C1250   1.397   1_655  A
C1249      H1254   1.083       .  S
C1250      C1251   1.412       .  A
C1250      H1255   1.083       .  S
C1251      C1252   1.400       .  A
C1252      H1256   1.083       .  S
C1257      C1258   1.403       .  A
C1257      C1262   1.390       .  A
C1257      H1263   1.084       .  S
C1258      C1259   1.399       .  A
C1259      C1260   1.387       .  A
C1259      H1264   1.084       .  S
C1260      C1261   1.399       .  A
C1260      H1265   1.084       .  S
C1261      C1262   1.400       .  A
C1262      H1266   1.084       .  S
C1267      C1268   1.401       .  A
C1267      C1272   1.395       .  A
C1267      H1273   1.084       .  S
C1268      C1269   1.402       .  A
C1269      C1270   1.402       .  A
C1269      H1274   1.083       .  S
C1270      C1271   1.407       .  A
C1270      H1275   1.083       .  S
C1271      C1272   1.406       .  A
C1272      H1276   1.083       .  S
C1277      C1278   1.404       .  A
C1277      C1282   1.402       .  A
C1277      H1283   1.084       .  S
C1278      C1279   1.405       .  A
C1279      C1280   1.402       .  A
C1279      H1284   1.083       .  S
C1280      C1281   1.404       .  A
C1280      H1285   1.084       .  S
C1281      C1282   1.405       .  A
C1282      H1286   1.083       .  S
C1287      C1288   1.397       .  A
C1287      C1292   1.383       .  A
C1287      H1293   1.084       .  S
C1288      C1289   1.398       .  A
C1289      C1290   1.389       .  A
C1289      H1294   1.084       .  S
C1290      C1291   1.403       .  A
C1290      H1295   1.084       .  S
C1291      C1292   1.397       .  A
C1292      H1296   1.084       .  S
C1297      C1298   1.396       .  A
C1297      C1302   1.386   1_655  A
C1297      H1303   1.084       .  S
C1298      C1299   1.395       .  A
C1299      C1300   1.378   1_655  A
C1299      H1304   1.084       .  S
C1300      C1301   1.397       .  A
C1300      H1305   1.084       .  S
C1301      C1302   1.398       .  A
C1302      H1306   1.082       .  S
C1307      C1308   1.399       .  A
C1307      C1312   1.396       .  A
C1307      H1313   1.083       .  S
C1308      C1309   1.413       .  A
C1309      C1310   1.392       .  A
C1309      H1314   1.083       .  S
C1310      C1311   1.395       .  A
C1310      H1315   1.084       .  S
C1311      C1312   1.410       .  A
C1312      H1316   1.083       .  S
C1317      C1318   1.400       .  A
C1317      C1322   1.393       .  A
C1317      H1323   1.084       .  S
C1318      C1319   1.399       .  A
C1319      C1320   1.402       .  A
C1319      H1324   1.083       .  S
C1320      C1321   1.412       .  A
C1320      H1325   1.083       .  S
C1321      C1322   1.405       .  A
C1322      H1326   1.083       .  S
C1327      C1328   1.414       .  A
C1327      C1332   1.413       .  A
C1327      H1333   1.083       .  S
C1328      C1329   1.417       .  A
C1329      C1330   1.427       .  A
C1329      H1334   1.083       .  S
C1330      C1331   1.417   1_565  A
C1330      H1335   1.083   1_565  S
C1331      C1332   1.412   1_545  A
C1332      H1336   1.083   1_565  S
C1337      C1338   1.417       .  A
C1337      C1342   1.427       .  A
C1337      H1343   1.083       .  S
C1338      C1339   1.414       .  A
C1339      C1340   1.414       .  A
C1339      H1344   1.083       .  S
C1340      C1341   1.413       .  A
C1340      H1345   1.083       .  S
C1341      C1342   1.417       .  A
C1342      H1346   1.083       .  S
C1347      C1348   1.410   1_565  A
C1347      C1352   1.396       .  A
C1347      H1353   1.083       .  S
C1348      C1349   1.403   1_545  A
C1349      C1350   1.400       .  A
C1349      H1354   1.083   1_565  S
C1350      C1351   1.408       .  A
C1350      H1355   1.084       .  S
C1351      C1352   1.399       .  A
C1352      H1356   1.083       .  S
C1357      C1358   1.397       .  A
C1357      C1362   1.387   1_655  A
C1357      H1363   1.084       .  S
C1358      C1359   1.399       .  A
C1359      C1360   1.390       .  A
C1359      H1364   1.081       .  S
C1360      C1361   1.397   1_655  A
C1360      H1365   1.083   1_655  S
C1361      C1362   1.401       .  A
C1362      H1366   1.084       .  S
C1367      C1368   1.416       .  A
C1367      C1372   1.401       .  A
C1367      H1373   1.083       .  S
C1368      C1369   1.399       .  A
C1369      C1370   1.401       .  A
C1369      H1374   1.083       .  S
C1370      C1371   1.416       .  A
C1370      H1375   1.083       .  S
C1371      C1372   1.399       .  A
C1372      H1376   1.083       .  S
C1377      C1378   1.410       .  A
C1377      C1382   1.382       .  A
C1377      H1383   1.082   1_545  S
C1378      C1379   1.388       .  A
C1379      C1380   1.381       .  A
C1379      H1384   1.084       .  S
C1380      C1381   1.412       .  A
C1380      H1385   1.083       .  S
C1381      C1382   1.390       .  A
C1382      H1386   1.084       .  S
C1387      C1388   1.406   1_545  A
C1387      C1392   1.404       .  A
C1387      H1393   1.083       .  S
C1388      C1389   1.405       .  A
C1389      C1390   1.405       .  A
C1389      H1394   1.083       .  S
C1390      C1391   1.406   1_565  A
C1390      H1395   1.083       .  S
C1391      C1392   1.405       .  A
C1392      H1396   1.084       .  S
C1397      C1398   1.388       .  A
C1397      C1402   1.380       .  A
C1397      H1403   1.084       .  S
C1398      C1399   1.411       .  A
C1399      C1400   1.380       .  A
C1399      H1404   1.083       .  S
C1400      C1401   1.388       .  A
C1400      H1405   1.084       .  S
C1401      C1402   1.411       .  A
C1402      H1406   1.083       .  S
C1407      C1408   1.412       .  A
C1407      C1412   1.423       .  A
C1407      H1413   1.082       .  S
C1408      C1409   1.396       .  A
C1409      C1410   1.384       .  A
C1409      H1414   1.075       .  S
C1410      C1411   1.400       .  A
C1410      H1415   1.078       .  S
C1411      C1412   1.414       .  A
C1412      H1416   1.083       .  S
C1417      C1418   1.401       .  A
C1417      C1422   1.383       .  A
C1417      H1423   1.077       .  S
C1418      C1419   1.393       .  A
C1419      C1420   1.383       .  A
C1419      H1424   1.084       .  S
C1420      C1421   1.401       .  A
C1420      H1425   1.078       .  S
C1421      C1422   1.393       .  A
C1422      H1426   1.084       .  S
C1427      C1428   1.397       .  A
C1427      C1432   1.399       .  A
C1427      H1433   1.083       .  S
C1428      C1429   1.416       .  A
C1429      C1430   1.400       .  A
C1429      H1434   1.082       .  S
C1430      C1431   1.397       .  A
C1430      H1435   1.083       .  S
C1431      C1432   1.417       .  A
C1432      H1436   1.083       .  S
C1437      C1438   1.414       .  A
C1437      C1442   1.427       .  A
C1437      H1443   1.083       .  S
C1438      C1439   1.415       .  A
C1439      C1440   1.421       .  A
C1439      H1444   1.083       .  S
C1440      C1441   1.411       .  A
C1440      H1445   1.083       .  S
C1441      C1442   1.416       .  A
C1442      H1446   1.083       .  S
C1447      C1448   1.410       .  A
C1447      C1452   1.396       .  A
C1447      H1453   1.084       .  S
C1448      C1449   1.399       .  A
C1449      C1450   1.399       .  A
C1449      H1454   1.083       .  S
C1450      C1451   1.410       .  A
C1450      H1455   1.083       .  S
C1451      C1452   1.398       .  A
C1452      H1456   1.083       .  S
C1457      C1458   1.408       .  A
C1457      C1462   1.383       .  A
C1457      H1463   1.083   1_545  S
C1458      C1459   1.388       .  A
C1459      C1460   1.380       .  A
C1459      H1464   1.084       .  S
C1460      C1461   1.411       .  A
C1460      H1465   1.083       .  S
C1461      C1462   1.392       .  A
C1462      H1466   1.084       .  S
C1467      C1468   1.406   1_545  A
C1467      C1472   1.404       .  A
C1467      H1473   1.083       .  S
C1468      C1469   1.404       .  A
C1469      C1470   1.402       .  A
C1469      H1474   1.084       .  S
C1470      C1471   1.406   1_565  A
C1470      H1475   1.083       .  S
C1471      C1472   1.404       .  A
C1472      H1476   1.083       .  S
C1477      C1478   1.412       .  A
C1477      C1482   1.418       .  A
C1477      H1483   1.083       .  S
C1478      C1479   1.418       .  A
C1479      C1480   1.429       .  A
C1479      H1484   1.083       .  S
C1480      C1481   1.417       .  A
C1480      H1485   1.083       .  S
C1481      C1482   1.416       .  A
C1482      H1486   1.083       .  S
C1487      C1488   1.409       .  A
C1487      C1492   1.397       .  A
C1487      H1493   1.083       .  S
C1488      C1489   1.401       .  A
C1489      C1490   1.399       .  A
C1489      H1494   1.083       .  S
C1490      C1491   1.409       .  A
C1490      H1495   1.083       .  S
C1491      C1492   1.400       .  A
C1492      H1496   1.083       .  S
C1497      C1498   1.395       .  A
C1497      C1502   1.387       .  A
C1497      H1503   1.083       .  S
C1498      C1499   1.397       .  A
C1499      C1500   1.379   1_655  A
C1499      H1504   1.084       .  S
C1500      C1501   1.395   1_455  A
C1500      H1505   1.084       .  S
C1501      C1502   1.398       .  A
C1502      H1506   1.081       .  S
C1507      C1508   1.396       .  A
C1507      C1512   1.396       .  A
C1507      H1513   1.083       .  S
C1508      C1509   1.413   1_655  A
C1509      C1510   1.396       .  A
C1509      H1514   1.083       .  S
C1510      C1511   1.397   1_455  A
C1510      H1515   1.083       .  S
C1511      C1512   1.414       .  A
C1512      H1516   1.083       .  S
C1517      C1518   1.398       .  A
C1517      C1522   1.386       .  A
C1517      H1523   1.084       .  S
C1518      C1519   1.402       .  A
C1519      C1520   1.386       .  A
C1519      H1524   1.084       .  S
C1520      C1521   1.400       .  A
C1520      H1525   1.084       .  S
C1521      C1522   1.398       .  A
C1522      H1526   1.084       .  S
C1527      C1528   1.405       .  A
C1527      C1532   1.402       .  A
C1527      H1533   1.083       .  S
C1528      C1529   1.405       .  A
C1529      C1530   1.404       .  A
C1529      H1534   1.083       .  S
C1530      C1531   1.405       .  A
C1530      H1535   1.083       .  S
C1531      C1532   1.405       .  A
C1532      H1536   1.084       .  S
