geometry optimzed in LAMMPS
_audit_creation_date              2020-12-01 
_audit_creation_method            'lammps2cif' 
_symmetry_space_group_name_H-M    'P1' 
_symmetry_Int_Tables_number       1 
_symmetry_cell_setting            triclinic 
loop_ 
_symmetry_equiv_pos_as_xyz 
  x,y,z 
_cell_length_a                    51.30094521 
_cell_length_b                    51.39347531476089 
_cell_length_c                    57.14872020319937 
_cell_angle_alpha                 89.84858554373788 
_cell_angle_beta                  89.80792077732151 
_cell_angle_gamma                 89.97710041712818 
loop_ 
_atom_site_label 
_atom_site_type_symbol 
_atom_site_fract_x 
_atom_site_fract_y 
_atom_site_fract_z 
_atom_site_charge 
O1          O  0.37327101  0.67967641  0.15609212    -0.85000
O2          O  0.38135357  0.72802452  0.13739868    -0.82000
C3          C  0.39285420  0.74812247  0.13017162     0.98500
O4          O  0.41508593  0.74638176  0.12052465    -0.82100
O5          O  0.44825621  0.73172286  0.15672577    -0.84700
C6          C  0.45723146  0.71746102  0.17281912     1.03000
O7          O  0.45863496  0.69319756  0.16993141    -0.77500
O8          O  0.40734926  0.68305751  0.17896019    -0.77700
C9          C  0.38307862  0.68133577  0.17636572     1.03000
O10         O  0.39054990  0.65685845  0.11283274    -0.85000
O11         O  0.39531133  0.70564933  0.09254816    -0.82000
C12         C  0.41655530  0.70580656  0.08108296     0.98500
O13         O  0.43817803  0.70657814  0.09153158    -0.82100
O14         O  0.47462401  0.69491606  0.12517889    -0.84700
C15         C  0.47613516  0.67019029  0.12525455     1.03000
O16         O  0.45729076  0.65664770  0.13245427    -0.77500
O17         O  0.40803611  0.64168197  0.14503297    -0.77600
C18         C  0.39604614  0.63796932  0.12604147     1.02900
Cr19       Cr  0.38775306  0.69275534  0.12532350     1.93700
Cr20       Cr  0.44246415  0.71811583  0.12429549     1.93200
Cr21       Cr  0.43192639  0.67041623  0.15499184     1.39100
O22         O  0.42072357  0.69365206  0.13457777    -1.22700
O23         O  0.39664833  0.68825221  0.81269377    -0.85000
O24         O  0.44778070  0.69798743  0.82127888    -0.82000
C25         C  0.44762077  0.72242476  0.81903558     0.98500
O26         O  0.43834542  0.73665039  0.83493861    -0.82100
O27         O  0.40448598  0.75191609  0.86998970    -0.84700
C28         C  0.38332547  0.75394250  0.85865940     1.03000
O29         O  0.37163265  0.73392133  0.85181510    -0.77500
O30         O  0.36239785  0.68511612  0.83546034    -0.77700
C31         C  0.37239055  0.68644324  0.81522472     1.03000
O32         O  0.39643705  0.64748444  0.84769785    -0.85000
O33         O  0.44633343  0.66157202  0.85919147    -0.82000
C34         C  0.46542290  0.67509267  0.86571297     0.98500
O35         O  0.46365593  0.69978641  0.86633303    -0.82100
O36         O  0.42655975  0.71167968  0.89977802    -0.84700
C37         C  0.40467050  0.71198079  0.90989456     1.03000
O38         O  0.38382777  0.71326373  0.89803590    -0.77500
O39         O  0.37868102  0.66396108  0.87938185    -0.77600
C40         C  0.38375669  0.64465147  0.86660817     1.02900
Cr41       Cr  0.42090974  0.67552996  0.83677788     1.93700
Cr42       Cr  0.43169195  0.72325257  0.86709667     1.93200
Cr43       Cr  0.37671904  0.69924859  0.86564627     1.39100
O44         O  0.40987557  0.69912244  0.85680743    -1.22700
O45         O  0.68458643  0.62769486  0.15101594    -0.85000
O46         O  0.73596908  0.62333778  0.13836558    -0.82000
C47         C  0.75792663  0.61394048  0.13344092     0.98500
O48         O  0.75965707  0.59112071  0.12510114    -0.82100
O49         O  0.74296733  0.55818727  0.16146049    -0.84700
C50         C  0.72736749  0.54817303  0.17607568     1.03000
O51         O  0.70367689  0.54506860  0.17086918    -0.77500
O52         O  0.68740336  0.59502998  0.17568939    -0.77700
C53         C  0.68359805  0.61878215  0.17170007     1.03000
O54         O  0.67022987  0.60644558  0.10645395    -0.85000
O55         O  0.72149416  0.60499299  0.09225574    -0.82000
C56         C  0.72412280  0.58318825  0.08213062     0.98500
O57         O  0.72598309  0.56247361  0.09385181    -0.82100
O58         O  0.71353016  0.52712639  0.12807301    -0.84700
C59         C  0.68929838  0.52305235  0.12516011     1.03000
O60         O  0.67299617  0.54079651  0.12928376    -0.77500
O61         O  0.65184307  0.58905481  0.13737420    -0.77600
C62         C  0.65004754  0.60057121  0.11785578     1.02900
Cr63       Cr  0.70346859  0.61308269  0.12282372     1.93700
Cr64       Cr  0.73357895  0.56123878  0.12762769     1.93200
Cr65       Cr  0.68085176  0.56842207  0.15184819     1.39100
O66         O  0.70592532  0.58091530  0.13389897    -1.22700
O67         O  0.68743438  0.59175603  0.81379868    -0.85000
O68         O  0.69561457  0.54037100  0.82464324    -0.82000
C69         C  0.72007520  0.53978609  0.82230651     0.98500
O70         O  0.73442996  0.55067774  0.83720590    -0.82100
O71         O  0.75032741  0.58501545  0.87191365    -0.84700
C72         C  0.75250935  0.60681357  0.86161417     1.03000
O73         O  0.73266266  0.61815059  0.85373081    -0.77500
O74         O  0.68440063  0.62674944  0.83550166    -0.77700
C75         C  0.68610166  0.61610959  0.81558913     1.03000
O76         O  0.64568298  0.59415817  0.84778968    -0.85000
O77         O  0.65893951  0.54494538  0.86196908    -0.82000
C78         C  0.67199508  0.52583262  0.86921607     0.98500
O79         O  0.69682342  0.52690536  0.86964517    -0.82100
O80         O  0.71034452  0.56433410  0.90207006    -0.84700
C81         C  0.71123044  0.58646999  0.91151621     1.03000
O82         O  0.71068117  0.60701972  0.89918110    -0.77500
O83         O  0.66155048  0.61201734  0.87948338    -0.77600
C84         C  0.64242980  0.60700326  0.86645088     1.02900
Cr85       Cr  0.67370401  0.56876032  0.83857894     1.93700
Cr86       Cr  0.72119114  0.55830433  0.86935912     1.93200
Cr87       Cr  0.69739381  0.61336857  0.86649982     1.39100
O88         O  0.69726591  0.58011200  0.85851258    -1.22700
O89         O  0.63441938  0.31545585  0.15211707    -0.85000
O90         O  0.62728510  0.26518610  0.13838318    -0.82000
C91         C  0.61639373  0.24404519  0.13328381     0.98500
O92         O  0.59409907  0.24395665  0.12359516    -0.82100
O93         O  0.55921826  0.26122446  0.15770281    -0.84700
C94         C  0.54998282  0.27657836  0.17279362     1.03000
O95         O  0.54992414  0.30076163  0.16908277    -0.77500
O96         O  0.60106399  0.31199790  0.17589641    -0.77700
C97         C  0.62509229  0.31500408  0.17260451     1.03000
O98         O  0.61607492  0.33305907  0.10765122    -0.85000
O99         O  0.61310068  0.28200898  0.09206089    -0.82000
C100        C  0.59214708  0.27993824  0.08057643     0.98500
O101        O  0.57034893  0.28008138  0.09087266    -0.82100
O102        O  0.53335116  0.29497987  0.12378839    -0.84700
C103        C  0.53105926  0.31968474  0.12342996     1.03000
O104        O  0.54984939  0.33399449  0.12916782    -0.77500
O105        O  0.59901947  0.35050048  0.13916296    -0.77600
C106        C  0.61060524  0.35285540  0.11971669     1.02900
Cr107      Cr  0.62003648  0.29868046  0.12317056     1.93700
Cr108      Cr  0.56586318  0.27202332  0.12456531     1.93200
Cr109      Cr  0.57588754  0.32238341  0.15180234     1.39100
O110        O  0.58712841  0.29776007  0.13285349    -1.22700
O111        O  0.59447690  0.31062652  0.81436669    -0.85000
O112        O  0.54412054  0.29531397  0.82008812    -0.82000
C113        C  0.54595310  0.27107075  0.81692505     0.98500
O114        O  0.55587715  0.25661869  0.83234851    -0.82100
O115        O  0.58948428  0.24209401  0.86798773    -0.84700
C116        C  0.61179683  0.24303940  0.85838413     1.03000
O117        O  0.62173275  0.26455438  0.85291490    -0.77500
O118        O  0.62675330  0.31505171  0.83901419    -0.77700
C119        C  0.61829373  0.31426849  0.81828819     1.03000
O120        O  0.58856238  0.34875549  0.85113407    -0.85000
O121        O  0.53965682  0.32870509  0.85986541    -0.82000
C122        C  0.52189480  0.31286444  0.86535927     0.98500
O123        O  0.52599386  0.28848945  0.86456400    -0.82100
O124        O  0.56200974  0.27719481  0.89878795    -0.84700
C125        C  0.58321728  0.27806030  0.90981188     1.03000
O126        O  0.60465862  0.28088355  0.89898384    -0.77500
O127        O  0.60580898  0.33174464  0.88274901    -0.77600
C128        C  0.60034090  0.35138542  0.87044232     1.02900
Cr129      Cr  0.56763163  0.31906260  0.83793215     1.93700
Cr130      Cr  0.55986665  0.26817188  0.86532006     1.93200
Cr131      Cr  0.61212945  0.29768472  0.86773156     1.39100
O132        O  0.57975119  0.29510827  0.85726034    -1.22700
O133        O  0.31797960  0.36364541  0.15454367    -0.85000
O134        O  0.26737681  0.36856304  0.14075356    -0.82000
C135        C  0.24599756  0.37837459  0.13470077     0.98500
O136        O  0.24548792  0.39978144  0.12363775    -0.82100
O137        O  0.26077530  0.43482539  0.15782459    -0.84700
C138        C  0.27547390  0.44562370  0.17254725     1.03000
O139        O  0.29957424  0.44784176  0.16853771    -0.77500
O140        O  0.31442494  0.39779702  0.17718628    -0.77700
C141        C  0.31775836  0.37371989  0.17468605     1.03000
O142        O  0.33484088  0.38082975  0.10949652    -0.85000
O143        O  0.28420190  0.38194474  0.09364906    -0.82000
C144        C  0.28242286  0.40258845  0.08155707     0.98500
O145        O  0.28110506  0.42455218  0.09135217    -0.82100
O146        O  0.29267701  0.46278280  0.12376933    -0.84700
C147        C  0.31714347  0.46658501  0.12259085     1.03000
O148        O  0.33278929  0.44877480  0.12829628    -0.77500
O149        O  0.35220089  0.40047759  0.13970703    -0.77600
C150        C  0.35461626  0.38733695  0.12110172     1.02900
Cr151      Cr  0.30072594  0.37636629  0.12516449     1.93700
Cr152      Cr  0.27199253  0.42906219  0.12477392     1.93200
Cr153      Cr  0.32295536  0.42268400  0.15195522     1.39100
O154        O  0.29874083  0.40945512  0.13364220    -1.22700
O155        O  0.30427570  0.39870155  0.81281988    -0.85000
O156        O  0.29173605  0.44942499  0.82040030    -0.82000
C157        C  0.26751737  0.44702974  0.81755720     0.98500
O158        O  0.25365721  0.43711046  0.83353958    -0.82100
O159        O  0.24052842  0.40427640  0.87078019    -0.84700
C160        C  0.24016188  0.38154851  0.86217466     1.03000
O161        O  0.26088327  0.37112665  0.85505450    -0.77500
O162        O  0.30974894  0.36541288  0.83641684    -0.77700
C163        C  0.30787984  0.37477627  0.81593428     1.03000
O164        O  0.34564694  0.40204105  0.84651157    -0.85000
O165        O  0.32798838  0.45048914  0.85802293    -0.82000
C166        C  0.31352282  0.46917743  0.86377365     0.98500
O167        O  0.28883846  0.46641061  0.86422213    -0.82100
O168        O  0.27851468  0.43045832  0.89907941    -0.84700
C169        C  0.28059884  0.40930337  0.91018084     1.03000
O170        O  0.28251410  0.38778191  0.89941984    -0.77500
O171        O  0.33132525  0.38497574  0.87925822    -0.77600
C172        C  0.34990327  0.39062902  0.86573327     1.02900
Cr173      Cr  0.31569715  0.42422384  0.83607151     1.93700
Cr174      Cr  0.26725055  0.43305486  0.86616504     1.93200
Cr175      Cr  0.29572774  0.37988659  0.86685347     1.39100
O176        O  0.29297915  0.41239864  0.85668893    -1.22700
O177        O  0.68670265  0.37200255  0.33775814    -0.85000
O178        O  0.73654058  0.37421924  0.35437202    -0.82000
C179        C  0.75796835  0.38349488  0.36100945     0.98500
O180        O  0.75890894  0.40614356  0.36985489    -0.82100
O181        O  0.74509793  0.44255878  0.33506015    -0.84700
C182        C  0.73077655  0.45547964  0.32132633     1.03000
O183        O  0.70651767  0.45644248  0.32478498    -0.77500
O184        O  0.69218587  0.40606248  0.31493837    -0.77700
C185        C  0.68809190  0.38206517  0.31756340     1.03000
O186        O  0.66774090  0.39015827  0.38202397    -0.85000
O187        O  0.71761800  0.38943855  0.39975612    -0.82000
C188        C  0.72008634  0.41016829  0.41143060     0.98500
O189        O  0.72289728  0.43183338  0.40131445    -0.82100
O190        O  0.71229509  0.47008644  0.36900047    -0.84700
C191        C  0.68773845  0.47367260  0.37001085     1.03000
O192        O  0.67231641  0.45595508  0.36376246    -0.77500
O193        O  0.65264545  0.40875673  0.35039560    -0.77600
C194        C  0.64876892  0.39677040  0.36940121     1.02900
Cr195      Cr  0.70256296  0.38408807  0.36783525     1.93700
Cr196      Cr  0.73291997  0.43611999  0.36805721     1.93200
Cr197      Cr  0.68275348  0.43068142  0.33990940     1.39100
O198        O  0.70614615  0.41691771  0.35877115    -1.22700
O199        O  0.68948527  0.40315437  0.67811707    -0.85000
O200        O  0.70135860  0.45423483  0.67159767    -0.82000
C201        C  0.72546529  0.45245828  0.67547195     0.98500
O202        O  0.74056718  0.44358120  0.65993791    -0.82100
O203        O  0.75674822  0.41197867  0.62285484    -0.84700
C204        C  0.75757266  0.38928832  0.63156622     1.03000
O205        O  0.73690438  0.37811524  0.63789213    -0.77500
O206        O  0.68732420  0.37009640  0.65400653    -0.77700
C207        C  0.68759300  0.37909064  0.67461137     1.03000
O208        O  0.65030230  0.40626998  0.64227966    -0.85000
O209        O  0.66711609  0.45579447  0.63247107    -0.82000
C210        C  0.68167381  0.47469715  0.62729951     0.98500
O211        O  0.70634016  0.47227343  0.62810633    -0.82100
O212        O  0.71908725  0.43741136  0.59355709    -0.84700
C213        C  0.71834000  0.41638847  0.58226730     1.03000
O214        O  0.71712578  0.39461923  0.59276442    -0.77500
O215        O  0.66720755  0.38941775  0.61048407    -0.77600
C216        C  0.64758686  0.39483995  0.62288123     1.02900
Cr217      Cr  0.67890679  0.42896168  0.65453877     1.93700
Cr218      Cr  0.72881180  0.43970173  0.62678145     1.93200
Cr219      Cr  0.70237237  0.38565399  0.62450749     1.39100
O220        O  0.70323171  0.41812387  0.63496311    -1.22700
O221        O  0.62332869  0.67879470  0.33776962    -0.85000
O222        O  0.61918294  0.72875381  0.35359958    -0.82000
C223        C  0.60963800  0.74983965  0.36071617     0.98500
O224        O  0.58766121  0.74997564  0.37090486    -0.82100
O225        O  0.55239028  0.73495797  0.33618403    -0.84700
C226        C  0.54014924  0.72051020  0.32214548     1.03000
O227        O  0.53819157  0.69640953  0.32619420    -0.77500
O228        O  0.58816732  0.68147360  0.31608759    -0.77700
C229        C  0.61246561  0.67879732  0.31790591     1.03000
O230        O  0.60743483  0.66013292  0.38282700    -0.85000
O231        O  0.60584939  0.71012373  0.40009755    -0.82000
C232        C  0.58516165  0.71200949  0.41221606     0.98500
O233        O  0.56314959  0.71373146  0.40247844    -0.82100
O234        O  0.52455541  0.70283519  0.37024181    -0.84700
C235        C  0.52068687  0.67842952  0.37162045     1.03000
O236        O  0.53861194  0.66279431  0.36614478    -0.77500
O237        O  0.58664276  0.64345157  0.35297620    -0.77600
C238        C  0.60051413  0.64065511  0.37106756     1.02900
Cr239      Cr  0.61125854  0.69477782  0.36801480     1.93700
Cr240      Cr  0.55841403  0.72343210  0.36923964     1.93200
Cr241      Cr  0.56403940  0.67283029  0.34183786     1.39100
O242        O  0.57793849  0.69686044  0.35997351    -1.22700
O243        O  0.58683539  0.69115475  0.68166545    -0.85000
O244        O  0.53590482  0.70350834  0.67264674    -0.82000
C245        C  0.53770543  0.72786191  0.67455593     0.98500
O246        O  0.54905322  0.74101115  0.65891229    -0.82100
O247        O  0.58264954  0.75300352  0.62203196    -0.84700
C248        C  0.60522973  0.75348598  0.63096499     1.03000
O249        O  0.61557169  0.73284393  0.63827044    -0.77500
O250        O  0.62049709  0.68508844  0.65844944    -0.77700
C251        C  0.61096419  0.68805955  0.67876610     1.03000
O252        O  0.58402566  0.64863310  0.64922259    -0.85000
O253        O  0.53532989  0.66599308  0.63625773    -0.82000
C254        C  0.51722298  0.68065860  0.62929408     0.98500
O255        O  0.52039001  0.70521131  0.62859899    -0.82100
O256        O  0.55670245  0.71410319  0.59433922    -0.84700
C257        C  0.57792996  0.71145411  0.58346155     1.03000
O258        O  0.59936020  0.70965892  0.59440727    -0.77500
O259        O  0.60160899  0.66153543  0.61623284    -0.77600
C260        C  0.59603922  0.64356173  0.63043003     1.02900
Cr261      Cr  0.56153963  0.67897006  0.65827540     1.93700
Cr262      Cr  0.55375450  0.72645594  0.62680740     1.93200
Cr263      Cr  0.60665179  0.69765831  0.62745328     1.39100
O264        O  0.57398015  0.70091075  0.63720035    -1.22700
O265        O  0.30729648  0.62165048  0.33436447    -0.85000
O266        O  0.25919050  0.61401584  0.35327789    -0.82000
C267        C  0.23887506  0.60249278  0.35991823     0.98500
O268        O  0.24018583  0.57992673  0.36893913    -0.82100
O269        O  0.25627266  0.54621041  0.33355166    -0.84700
C270        C  0.27088390  0.53560980  0.31858735     1.03000
O271        O  0.29521840  0.53568321  0.32139401    -0.77500
O272        O  0.30368693  0.58736819  0.31175458    -0.77700
C273        C  0.30547796  0.61163155  0.31413585     1.03000
O274        O  0.33011463  0.60456650  0.37799672    -0.85000
O275        O  0.28136878  0.60002210  0.39832916    -0.82000
C276        C  0.27984140  0.57871506  0.40959535     0.98500
O277        O  0.27903143  0.55727344  0.39898659    -0.82100
O278        O  0.29307735  0.52099579  0.36610225    -0.84700
C279        C  0.31794704  0.52009600  0.36613795     1.03000
O280        O  0.33109913  0.53918567  0.35893099    -0.77500
O281        O  0.34541207  0.58818341  0.34543360    -0.77600
C282        C  0.34906592  0.59968879  0.36466361     1.02900
Cr283      Cr  0.29430719  0.60746279  0.36540582     1.93700
Cr284      Cr  0.26892807  0.55274127  0.36606647     1.93200
Cr285      Cr  0.31700965  0.56353602  0.33593339     1.39100
O286        O  0.29344529  0.57457856  0.35614600    -1.22700
O287        O  0.30085605  0.58307961  0.67985560    -0.85000
O288        O  0.28948083  0.53254855  0.66731118    -0.82000
C289        C  0.26518143  0.53398132  0.67013436     0.98500
O290        O  0.25150021  0.54641850  0.65557478    -0.82100
O291        O  0.23811828  0.58292948  0.62130679    -0.84700
C292        C  0.23769691  0.60482303  0.63145270     1.03000
O293        O  0.25838313  0.61475707  0.63902681    -0.77500
O294        O  0.30634903  0.61841684  0.65867523    -0.77700
C295        C  0.30378066  0.60737944  0.67841128     1.03000
O296        O  0.34284371  0.58369247  0.64669965    -0.85000
O297        O  0.32630780  0.53628032  0.63033558    -0.82000
C298        C  0.31187643  0.51853807  0.62241773     0.98500
O299        O  0.28719927  0.52128877  0.62229300    -0.82100
O300        O  0.27640898  0.56038448  0.59061121    -0.84700
C301        C  0.27888755  0.58258844  0.58133459     1.03000
O302        O  0.28108840  0.60278584  0.59387995    -0.77500
O303        O  0.32952612  0.60335982  0.61491942    -0.77600
C304        C  0.34768325  0.59685090  0.62851652     1.02900
Cr305      Cr  0.31312531  0.56002587  0.65447812     1.93700
Cr306      Cr  0.26517582  0.55420458  0.62335349     1.93200
Cr307      Cr  0.29349036  0.60716179  0.62707412     1.39100
O308        O  0.29067407  0.57382241  0.63461936    -1.22700
O309        O  0.37686980  0.31533011  0.34115344    -0.85000
O310        O  0.38202858  0.26466450  0.35340449    -0.82000
C311        C  0.39247295  0.24304841  0.35750781     0.98500
O312        O  0.41494335  0.24183757  0.36666227    -0.82100
O313        O  0.45074548  0.26148434  0.33380726    -0.84700
C314        C  0.46343310  0.27787022  0.32187882     1.03000
O315        O  0.46261742  0.30164359  0.32719752    -0.77500
O316        O  0.41136503  0.31400413  0.31830124    -0.77700
C317        C  0.38703399  0.31582629  0.32094403     1.03000
O318        O  0.39383014  0.33032947  0.38706567    -0.85000
O319        O  0.39599811  0.27892485  0.40068502    -0.82000
C320        C  0.41706349  0.27550790  0.41178241     0.98500
O321        O  0.43865108  0.27469027  0.40128790    -0.82100
O322        O  0.47622710  0.29139543  0.37073014    -0.84700
C323        C  0.47881548  0.31585182  0.37351868     1.03000
O324        O  0.46032140  0.33113610  0.36875697    -0.77500
O325        O  0.41164180  0.34969142  0.35691094    -0.77600
C326        C  0.39891519  0.35083215  0.37586768     1.02900
Cr327      Cr  0.38986507  0.29707207  0.36998122     1.93700
Cr328      Cr  0.44345727  0.26930045  0.36755994     1.93200
Cr329      Cr  0.43543533  0.32215700  0.34407681     1.39100
O330        O  0.42292684  0.29614650  0.36082394    -1.22700
O331        O  0.41496243  0.31038845  0.67773381    -0.85000
O332        O  0.46476247  0.29734559  0.66434985    -0.82000
C333        C  0.46423679  0.27326043  0.66850014     0.98500
O334        O  0.45023672  0.25847413  0.65629047    -0.82100
O335        O  0.41173089  0.24246230  0.62507550    -0.84700
C336        C  0.39020248  0.24373988  0.63605242     1.03000
O337        O  0.38102593  0.26535619  0.64202420    -0.77500
O338        O  0.37876144  0.31474231  0.65770126    -0.77700
C339        C  0.39055678  0.31288693  0.67709323     1.03000
O340        O  0.41326576  0.34932059  0.64149358    -0.85000
O341        O  0.46006043  0.33049429  0.62495535    -0.82000
C342        C  0.47761718  0.31514224  0.61800194     0.98500
O343        O  0.47441007  0.29057646  0.61961765    -0.82100
O344        O  0.43395483  0.27734684  0.59076504    -0.84700
C345        C  0.41154133  0.27928252  0.58201153     1.03000
O346        O  0.39164898  0.28278056  0.59482242    -0.77500
O347        O  0.39260949  0.33296617  0.61153642    -0.77600
C348        C  0.39958012  0.35236518  0.62334438     1.02900
Cr349      Cr  0.43704049  0.32010044  0.65082027     1.93700
Cr350      Cr  0.44112183  0.26915560  0.62369559     1.93200
Cr351      Cr  0.38866171  0.29865030  0.62687064     1.39100
O352        O  0.42225832  0.29598943  0.63345770    -1.22700
O353        O  0.86890110  0.18069000  0.65619349    -0.85000
O354        O  0.87603207  0.23092223  0.64248547    -0.82000
C355        C  0.88688647  0.25200739  0.63712463     0.98500
O356        O  0.90954799  0.25206572  0.62816045    -0.82100
O357        O  0.94328767  0.23304881  0.66284401    -0.84700
C358        C  0.95532425  0.21709460  0.67565466     1.03000
O359        O  0.95443997  0.19303643  0.67127477    -0.77500
O360        O  0.90289358  0.18154580  0.67947772    -0.77700
C361        C  0.87865361  0.17980073  0.67651881     1.03000
O362        O  0.88666390  0.16381961  0.61102152    -0.85000
O363        O  0.89105023  0.21437395  0.59590979    -0.82000
C364        C  0.91260715  0.21640656  0.58512592     0.98500
O365        O  0.93386530  0.21667872  0.59597401    -0.82100
O366        O  0.96980711  0.20091054  0.62794038    -0.84700
C367        C  0.97154049  0.17634386  0.62546378     1.03000
O368        O  0.95249710  0.16185659  0.63033905    -0.77500
O369        O  0.90334798  0.14464747  0.64173036    -0.77600
C370        C  0.89097505  0.14347251  0.62263763     1.02900
Cr371      Cr  0.88323602  0.19764866  0.62706026     1.93700
Cr372      Cr  0.93740680  0.22382566  0.62937735     1.93200
Cr373      Cr  0.92738794  0.17219175  0.65438214     1.39100
O374        O  0.91598360  0.19788869  0.63671841    -1.22700
O375        O  0.91267007  0.17346877  0.32121872    -0.85000
O376        O  0.96225248  0.19027324  0.33168952    -0.82000
C377        C  0.96052568  0.21407167  0.32641504     0.98500
O378        O  0.94685674  0.22913821  0.33881020    -0.82100
O379        O  0.90905242  0.24541823  0.37119573    -0.84700
C380        C  0.88709419  0.24318376  0.36120071     1.03000
O381        O  0.87879209  0.22107301  0.35553072    -0.77500
O382        O  0.87755373  0.16987518  0.34304363    -0.77700
C383        C  0.88846779  0.16978854  0.32318403     1.03000
O384        O  0.91461995  0.13773258  0.36005593    -0.85000
O385        O  0.96129788  0.15976120  0.37311576    -0.82000
C386        C  0.97850127  0.17623992  0.37838370     0.98500
O387        O  0.97403287  0.20046395  0.37573484    -0.82100
O388        O  0.93387147  0.21313386  0.40584329    -0.84700
C389        C  0.91162420  0.21114759  0.41513029     1.03000
O390        O  0.89157402  0.20695030  0.40287889    -0.77500
O391        O  0.89335732  0.15554172  0.38918577    -0.77600
C392        C  0.90093516  0.13555648  0.37839635     1.02900
Cr393      Cr  0.93647986  0.16719001  0.34781104     1.93700
Cr394      Cr  0.93954283  0.21997265  0.37224880     1.93200
Cr395      Cr  0.88802243  0.18876521  0.37213425     1.39100
O396        O  0.92134645  0.19192980  0.36434343    -1.22700
O397        O  0.12663076  0.81658061  0.65979283    -0.85000
O398        O  0.12258608  0.76706172  0.64356424    -0.82000
C399        C  0.11289130  0.74590376  0.63698552     0.98500
O400        O  0.09118831  0.74564756  0.62660476    -0.82100
O401        O  0.05622095  0.76199905  0.66102024    -0.84700
C402        C  0.04336579  0.77673979  0.67435458     1.03000
O403        O  0.04078295  0.80054921  0.66932061    -0.77500
O404        O  0.09015165  0.81543970  0.68009347    -0.77700
C405        C  0.11463516  0.81645440  0.67927857     1.03000
O406        O  0.11213562  0.83562220  0.61388599    -0.85000
O407        O  0.11001175  0.78578356  0.59644205    -0.82000
C408        C  0.08924384  0.78243146  0.58466635     0.98500
O409        O  0.06733459  0.78078017  0.59463375    -0.82100
O410        O  0.02849207  0.79295654  0.62590137    -0.84700
C411        C  0.02492099  0.81729019  0.62335246     1.03000
O412        O  0.04275553  0.83307031  0.62863969    -0.77500
O413        O  0.09032286  0.85285261  0.64293688    -0.77600
C414        C  0.10493082  0.85532281  0.62520438     1.02900
Cr415      Cr  0.11518359  0.80100921  0.62889636     1.93700
Cr416      Cr  0.06228001  0.77236046  0.62779369     1.93200
Cr417      Cr  0.06718270  0.82373646  0.65378541     1.39100
O418        O  0.08165732  0.79923309  0.63645183    -1.22700
O419        O  0.09118754  0.81036886  0.31640225    -0.85000
O420        O  0.04185259  0.79637780  0.32955148    -0.82000
C421        C  0.04438967  0.77239227  0.32541993     0.98500
O422        O  0.05701864  0.75823617  0.33942771    -0.82100
O423        O  0.09400771  0.74381392  0.37232624    -0.84700
C424        C  0.11507321  0.74392291  0.36067554     1.03000
O425        O  0.12459797  0.76501112  0.35343902    -0.77500
O426        O  0.12744013  0.81467386  0.33633309    -0.77700
C427        C  0.11546299  0.81359507  0.31695611     1.03000
O428        O  0.09230222  0.84969868  0.35215752    -0.85000
O429        O  0.04613344  0.83084580  0.36864390    -0.82000
C430        C  0.02818667  0.81605853  0.37556064     0.98500
O431        O  0.03099872  0.79145216  0.37442315    -0.82100
O432        O  0.07158858  0.78014988  0.40473591    -0.84700
C433        C  0.09414367  0.78198824  0.41340137     1.03000
O434        O  0.11406517  0.78435684  0.40031125    -0.77500
O435        O  0.11366246  0.83394976  0.38210904    -0.77600
C436        C  0.10590750  0.85314402  0.37029987     1.02900
Cr437      Cr  0.06899678  0.82007835  0.34308180     1.93700
Cr438      Cr  0.06473266  0.77031075  0.37193159     1.93200
Cr439      Cr  0.11739004  0.79914873  0.36764405     1.39100
O440        O  0.08378150  0.79658392  0.36118591    -1.22700
O441        O  0.81366793  0.87013078  0.65711024    -0.85000
O442        O  0.76449991  0.87369552  0.63988781    -0.82000
C443        C  0.74317124  0.88344350  0.63363542     0.98500
O444        O  0.74254500  0.90575676  0.62401619    -0.82100
O445        O  0.75747178  0.94125847  0.65830434    -0.84700
C446        C  0.77170175  0.95393867  0.67210014     1.03000
O447        O  0.79589448  0.95549891  0.66825806    -0.77500
O448        O  0.80854218  0.90498417  0.67887690    -0.77700
C449        C  0.81173507  0.88081132  0.67704957     1.03000
O450        O  0.83363444  0.88703677  0.61224599    -0.85000
O451        O  0.78388742  0.88781421  0.59395995    -0.82000
C452        C  0.78100372  0.90874761  0.58241895     0.98500
O453        O  0.77909363  0.93036245  0.59258276    -0.82100
O454        O  0.79129120  0.96852960  0.62410337    -0.84700
C455        C  0.81604352  0.97094878  0.62277946     1.03000
O456        O  0.83061047  0.95263845  0.62922817    -0.77500
O457        O  0.84881415  0.90552136  0.64380521    -0.77600
C458        C  0.85263329  0.89347212  0.62484822     1.02900
Cr459      Cr  0.79858820  0.88221689  0.62631924     1.93700
Cr460      Cr  0.76944620  0.93500630  0.62549317     1.93200
Cr461      Cr  0.81921325  0.92861497  0.65364665     1.39100
O462        O  0.79574258  0.91520851  0.63484997    -1.22700
O463        O  0.82028533  0.90237488  0.31974566    -0.85000
O464        O  0.80609234  0.95226305  0.33077292    -0.82000
C465        C  0.78247459  0.95302418  0.32470044     0.98500
O466        O  0.76563236  0.93992104  0.33583431    -0.82100
O467        O  0.74541658  0.90205472  0.36708511    -0.84700
C468        C  0.74685471  0.88031738  0.35665064     1.03000
O469        O  0.76869016  0.87110193  0.35114868    -0.77500
O470        O  0.82026010  0.86645176  0.34061512    -0.77700
C471        C  0.82249030  0.87802377  0.32115905     1.03000
O472        O  0.85373246  0.90064358  0.35994439    -0.85000
O473        O  0.83418967  0.94845362  0.37326055    -0.82000
C474        C  0.81848426  0.96662585  0.37789260     0.98500
O475        O  0.79418839  0.96370393  0.37420445    -0.82100
O476        O  0.77792670  0.92385899  0.40300316    -0.84700
C477        C  0.77836553  0.90148080  0.41211050     1.03000
O478        O  0.78098725  0.88135521  0.39959393    -0.77500
O479        O  0.83291431  0.87981848  0.38774292    -0.77600
C480        C  0.85394026  0.88627018  0.37794083     1.02900
Cr481      Cr  0.82657674  0.92479800  0.34711178     1.93700
Cr482      Cr  0.77271010  0.93079169  0.36943264     1.93200
Cr483      Cr  0.80046601  0.87737800  0.36927684     1.39100
O484        O  0.79994000  0.91097565  0.36216769    -1.22700
O485        O  0.18453995  0.13465219  0.65426233    -0.85000
O486        O  0.23491910  0.12474122  0.64103347    -0.82000
C487        C  0.25542804  0.11266767  0.63574907     0.98500
O488        O  0.25417578  0.09002666  0.62703396    -0.82100
O489        O  0.23577125  0.05924770  0.66342987    -0.84700
C490        C  0.22012511  0.04947782  0.67799811     1.03000
O491        O  0.19586318  0.05033087  0.67444110    -0.77500
O492        O  0.18581744  0.10229860  0.67932771    -0.77700
C493        C  0.18414383  0.12626344  0.67511117     1.03000
O494        O  0.16701621  0.11444179  0.61028820    -0.85000
O495        O  0.21779516  0.10800438  0.59515815    -0.82000
C496        C  0.21832963  0.08600766  0.58511189     0.98500
O497        O  0.21689622  0.06528710  0.59679026    -0.82100
O498        O  0.20161611  0.03138222  0.63117434    -0.84700
C499        C  0.17688496  0.02997615  0.62988185     1.03000
O500        O  0.16301706  0.04954542  0.63436426    -0.77500
O501        O  0.14805659  0.09977036  0.64215072    -0.77600
C502        C  0.14669818  0.11029486  0.62213748     1.02900
Cr503      Cr  0.20115913  0.11796541  0.62595456     1.93700
Cr504      Cr  0.22532061  0.06320216  0.63014980     1.93200
Cr505      Cr  0.17505644  0.07629254  0.65616138     1.39100
O506        O  0.20040400  0.08576440  0.63715940    -1.22700
O507        O  0.19187270  0.09054336  0.31922531    -0.85000
O508        O  0.20529804  0.04008798  0.32832714    -0.82000
C509        C  0.22929764  0.04202205  0.32388836     0.98500
O510        O  0.24450090  0.05207956  0.33864222    -0.82100
O511        O  0.26060252  0.08687510  0.37293155    -0.84700
C512        C  0.26084014  0.10875206  0.36263701     1.03000
O513        O  0.23983879  0.11904866  0.35600426    -0.77500
O514        O  0.18903806  0.12478131  0.34188777    -0.77700
C515        C  0.18876883  0.11464479  0.32177724     1.03000
O516        O  0.15407631  0.08891902  0.35655910    -0.85000
O517        O  0.17218400  0.04064174  0.36849902    -0.82000
C518        C  0.18720796  0.02242909  0.37444644     0.98500
O519        O  0.21177880  0.02526350  0.37301011    -0.82100
O520        O  0.22444752  0.06328684  0.40512708    -0.84700
C521        C  0.22418735  0.08539923  0.41470163     1.03000
O522        O  0.22256262  0.10597019  0.40254998    -0.77500
O523        O  0.17143099  0.10831809  0.38688945    -0.77600
C524        C  0.15159706  0.10161415  0.37536017     1.02900
Cr525      Cr  0.18272839  0.06605213  0.34458667     1.93700
Cr526      Cr  0.23341506  0.05833336  0.37174542     1.93200
Cr527      Cr  0.20598891  0.11189269  0.37126046     1.39100
O528        O  0.20725859  0.07872943  0.36281806    -1.22700
O529        O  0.81476932  0.08708593  0.17941327    -0.85000
O530        O  0.80139163  0.03694822  0.17038774    -0.82000
C531        C  0.77735313  0.03848421  0.17500343     0.98500
O532        O  0.76182101  0.04815302  0.16021424    -0.82100
O533        O  0.74527698  0.08299054  0.12527792    -0.84700
C534        C  0.74462216  0.10512222  0.13504536     1.03000
O535        O  0.76533677  0.11530726  0.14237324    -0.77500
O536        O  0.81593639  0.12182477  0.15707528    -0.77700
C537        C  0.81703211  0.11132113  0.17710155     1.03000
O538        O  0.85215859  0.08617768  0.14182822    -0.85000
O539        O  0.83437426  0.03762602  0.12995030    -0.82000
C540        C  0.81951017  0.01924193  0.12419316     0.98500
O541        O  0.79493398  0.02177610  0.12605619    -0.82100
O542        O  0.78208601  0.05962987  0.09367586    -0.84700
C543        C  0.78237213  0.08164192  0.08379917     1.03000
O544        O  0.78351189  0.10235495  0.09578113    -0.77500
O545        O  0.83383434  0.10567368  0.11195572    -0.77600
C546        C  0.85392688  0.09959137  0.12331232     1.02900
Cr547      Cr  0.82377083  0.06292132  0.15393001     1.93700
Cr548      Cr  0.77291834  0.05467307  0.12704947     1.93200
Cr549      Cr  0.79942826  0.10862799  0.12744019     1.39100
O550        O  0.79879444  0.07542606  0.13594761    -1.22700
O551        O  0.81231299  0.12159238  0.84137114    -0.85000
O552        O  0.76215158  0.11612277  0.85686707    -0.82000
C553        C  0.74099136  0.10567304  0.86285075     0.98500
O554        O  0.74074699  0.08292618  0.87152482    -0.82100
O555        O  0.75503223  0.05037112  0.83467579    -0.84700
C556        C  0.76956732  0.04101388  0.81893942     1.03000
O557        O  0.79369350  0.03856954  0.82247432    -0.77500
O558        O  0.80757620  0.08941960  0.81661038    -0.77700
C559        C  0.81128003  0.11317917  0.82060891     1.03000
O560        O  0.83068000  0.10031113  0.88459882    -0.85000
O561        O  0.78047157  0.09823329  0.90207615    -0.82000
C562        C  0.77859935  0.07651717  0.91254982     0.98500
O563        O  0.77708516  0.05561526  0.90112578    -0.82100
O564        O  0.78830554  0.02041101  0.86642635    -0.84700
C565        C  0.81287815  0.01724413  0.86737525     1.03000
O566        O  0.82806263  0.03538936  0.86156769    -0.77500
O567        O  0.84674822  0.08402798  0.85219855    -0.77600
C568        C  0.84996187  0.09478039  0.87184235     1.02900
Cr569      Cr  0.79604005  0.10651187  0.87047668     1.93700
Cr570      Cr  0.76717981  0.05383622  0.86778828     1.93200
Cr571      Cr  0.81722362  0.06274759  0.83975035     1.39100
O572        O  0.79354628  0.07432009  0.85958583    -1.22700
O573        O  0.91387160  0.80898672  0.17898348    -0.85000
O574        O  0.96515546  0.79702261  0.17140321    -0.82000
C575        C  0.96371956  0.77280393  0.17481719     0.98500
O576        O  0.95435223  0.75823454  0.15921340    -0.82100
O577        O  0.92056470  0.74302838  0.12347647    -0.84700
C578        C  0.89786765  0.74266970  0.13251574     1.03000
O579        O  0.88742504  0.76347562  0.13930185    -0.77500
O580        O  0.88067217  0.81316609  0.15521960    -0.77700
C581        C  0.88988972  0.81243432  0.17572460     1.03000
O582        O  0.91636043  0.84872118  0.14336554    -0.85000
O583        O  0.96513675  0.83192886  0.13236905    -0.82000
C584        C  0.98400349  0.81794629  0.12612490     0.98500
O585        O  0.98204511  0.79320278  0.12664669    -0.82100
O586        O  0.94545300  0.78080908  0.09308574    -0.84700
C587        C  0.92393804  0.78159375  0.08247407     1.03000
O588        O  0.90264483  0.78262554  0.09375353    -0.77500
O589        O  0.89953458  0.83257939  0.11134156    -0.77600
C590        C  0.90485578  0.85187261  0.12401328     1.02900
Cr591      Cr  0.93927301  0.81982473  0.15502367     1.93700
Cr592      Cr  0.94909150  0.77062884  0.12631056     1.93200
Cr593      Cr  0.89517955  0.79765545  0.12557939     1.39100
O594        O  0.92789367  0.79607459  0.13538996    -1.22700
O595        O  0.87492338  0.81251381  0.83666038    -0.85000
O596        O  0.87623998  0.76287338  0.85305736    -0.82000
C597        C  0.88471901  0.74123369  0.85984880     0.98500
O598        O  0.90632257  0.73983665  0.87041128    -0.82100
O599        O  0.94230856  0.75361467  0.83560061    -0.84700
C600        C  0.95476612  0.76798376  0.82151981     1.03000
O601        O  0.95927771  0.79140324  0.82665040    -0.77500
O602        O  0.91071930  0.80865409  0.81567291    -0.77700
C603        C  0.88641473  0.81157241  0.81699798     1.03000
O604        O  0.89084753  0.83079122  0.88193859    -0.85000
O605        O  0.89005713  0.78108036  0.89973522    -0.82000
C606        C  0.91072467  0.77816539  0.91166769     0.98500
O607        O  0.93247558  0.77467988  0.90177411    -0.82100
O608        O  0.97150967  0.78370345  0.86987578    -0.84700
C609        C  0.97611448  0.80781605  0.87248029     1.03000
O610        O  0.95916202  0.82445653  0.86691552    -0.77500
O611        O  0.91286893  0.84651088  0.85224654    -0.77600
C612        C  0.89875856  0.84992442  0.87012552     1.02900
Cr613      Cr  0.88559612  0.79635858  0.86735671     1.93700
Cr614      Cr  0.93682248  0.76489307  0.86870472     1.93200
Cr615      Cr  0.93433578  0.81610051  0.84181700     1.39100
O616        O  0.91881293  0.79258456  0.85955560    -1.22700
O617        O  0.19311391  0.90882245  0.17787456    -0.85000
O618        O  0.20830514  0.95869994  0.16853459    -0.82000
C619        C  0.23175900  0.95605201  0.17477276     0.98500
O620        O  0.24734024  0.94320633  0.16217244    -0.82100
O621        O  0.26588846  0.90856194  0.12803581    -0.84700
C622        C  0.26418235  0.88621286  0.13733698     1.03000
O623        O  0.24229537  0.87702936  0.14260018    -0.77500
O624        O  0.19172312  0.87348104  0.15628101    -0.77700
C625        C  0.19089704  0.88453194  0.17612230     1.03000
O626        O  0.15741966  0.90968149  0.13943127    -0.85000
O627        O  0.17836504  0.95733089  0.12649000    -0.82000
C628        C  0.19441633  0.97521569  0.12190117     0.98500
O629        O  0.21865505  0.97186898  0.12576813    -0.82100
O630        O  0.23350020  0.93434909  0.09446843    -0.84700
C631        C  0.23095523  0.91297402  0.08397848     1.03000
O632        O  0.22687923  0.89193217  0.09519559    -0.77500
O633        O  0.17626389  0.89010636  0.11002346    -0.77600
C634        C  0.15595972  0.89590889  0.12116516     1.02900
Cr635      Cr  0.18613352  0.93258396  0.15171564     1.93700
Cr636      Cr  0.23935566  0.93803901  0.12826831     1.93200
Cr637      Cr  0.20965423  0.88572287  0.12658415     1.39100
O638        O  0.21162795  0.91871423  0.13514198    -1.22700
O639        O  0.20817640  0.86577933  0.83864119    -0.85000
O640        O  0.24256714  0.87883474  0.87387715    -0.82000
C641        C  0.25937415  0.89197380  0.86291759     0.98500
O642        O  0.25408148  0.91451002  0.85558805    -0.82100
O643        O  0.22399878  0.95428113  0.83715832    -0.84700
C644        C  0.21561365  0.94635868  0.81754776     1.03000
O645        O  0.19882072  0.92855103  0.81648420    -0.77500
O646        O  0.17194296  0.88455993  0.82756797    -0.77700
C647        C  0.18986527  0.86818267  0.82413595     1.03000
O648        O  0.16527249  0.87187358  0.87129930    -0.85000
O649        O  0.20003908  0.89076967  0.90379484    -0.82000
C650        C  0.21542613  0.90655467  0.91350307     0.98500
O651        O  0.22960766  0.92182692  0.90138113    -0.82100
O652        O  0.19801049  0.95947319  0.88199509    -0.84700
C653        C  0.17896857  0.96805070  0.87040938     1.03000
O654        O  0.17166793  0.95664251  0.85204218    -0.77500
O655        O  0.14880842  0.91082896  0.86660199    -0.77600
C656        C  0.14615781  0.88740382  0.87274457     1.02900
Cr657      Cr  0.20382623  0.87931286  0.87109732     1.93700
Cr658      Cr  0.22467001  0.93561975  0.86845617     1.93200
Cr659      Cr  0.17486638  0.91965553  0.84219739     1.39100
O660        O  0.20114220  0.91173220  0.86078532    -1.22700
O661        O  0.09718143  0.17936957  0.17975236    -0.85000
O662        O  0.04588569  0.18923303  0.17226159    -0.82000
C663        C  0.04680799  0.21303412  0.17748739     0.98500
O664        O  0.05474908  0.22947188  0.16261365    -0.82100
O665        O  0.08693031  0.24871986  0.12692885    -0.84700
C666        C  0.10909501  0.25034398  0.13656597     1.03000
O667        O  0.12078913  0.23011121  0.14312097    -0.77500
O668        O  0.13115678  0.17999031  0.15641913    -0.77700
C669        C  0.12145240  0.17875229  0.17675641     1.03000
O670        O  0.09745555  0.14244025  0.14191499    -0.85000
O671        O  0.04760916  0.15717189  0.13162719    -0.82000
C672        C  0.02801690  0.17085696  0.12677355     0.98500
O673        O  0.02892772  0.19548276  0.12884472    -0.82100
O674        O  0.06465306  0.21130759  0.09548213    -0.84700
C675        C  0.08640348  0.21249142  0.08511134     1.03000
O676        O  0.10750796  0.21285530  0.09657729    -0.77500
O677        O  0.11447089  0.16225929  0.11146158    -0.77600
C678        C  0.10961288  0.14165931  0.12265331     1.02900
Cr679      Cr  0.07283203  0.16894813  0.15500173     1.93700
Cr680      Cr  0.06038451  0.21951522  0.12908044     1.93200
Cr681      Cr  0.11591643  0.19635238  0.12754201     1.39100
O682        O  0.08302807  0.19481217  0.13692417    -1.22700
O683        O  0.12289898  0.17376197  0.84161627    -0.85000
O684        O  0.11970637  0.22248926  0.85892418    -0.82000
C685        C  0.11007417  0.24414742  0.86424786     0.98500
O686        O  0.08753437  0.24555829  0.87342507    -0.82100
O687        O  0.05304665  0.23331911  0.83776225    -0.84700
C688        C  0.04220526  0.21971653  0.82227872     1.03000
O689        O  0.03980801  0.19550489  0.82504317    -0.77500
O690        O  0.09029423  0.18108230  0.81774618    -0.77700
C691        C  0.11424894  0.17745537  0.82112912     1.03000
O692        O  0.10138347  0.15381253  0.88494157    -0.85000
O693        O  0.10192528  0.20340878  0.90378202    -0.82000
C694        C  0.08042210  0.20621672  0.91445909     0.98500
O695        O  0.05950835  0.20916438  0.90333540    -0.82100
O696        O  0.02328185  0.19997195  0.86951096    -0.84700
C697        C  0.01932927  0.17552361  0.86986700     1.03000
O698        O  0.03681262  0.15995719  0.86320980    -0.77500
O699        O  0.08483560  0.14032984  0.85190584    -0.77600
C700        C  0.09513171  0.13547857  0.87148816     1.02900
Cr701      Cr  0.10892570  0.18879052  0.87169401     1.93700
Cr702      Cr  0.05735605  0.22006461  0.87035759     1.93200
Cr703      Cr  0.06394268  0.17086196  0.84104031     1.39100
O704        O  0.07669386  0.19324240  0.86128083    -1.22700
C705        C  0.06739882  0.20717978  0.98054778     0.16300
C706        C  0.05622380  0.20738405  0.00294911    -0.32700
C707        C  0.07297856  0.21038288  0.02206580     0.20700
C708        C  0.09968059  0.21303960  0.01902363     0.02900
C709        C  0.11087488  0.21272865  0.99661142    -0.22500
C710        C  0.09411610  0.20969134  0.97747950     0.12100
S711        S  0.05030836  0.20431726  0.95517130    -0.06100
C712        C  0.07943930  0.20653877  0.94018774    -0.09600
C713        C  0.10119953  0.20912088  0.95431083    -0.26200
S714        S  0.11670101  0.21600146  0.04446309    -0.03400
C715        C  0.08756062  0.21343313  0.05939299    -0.16800
C716        C  0.06587372  0.21068849  0.04520587    -0.14800
H717        H  0.03538604  0.20532248  0.00536506     0.20500
H718        H  0.13171850  0.21472776  0.99420070     0.16600
H719        H  0.12102886  0.21095648  0.94796410     0.19100
H720        H  0.04605999  0.20845424  0.05149304     0.12400
C721        C  0.15182439  0.03455396  0.88967349     0.16300
C722        C  0.14850905  0.06040412  0.89714864    -0.32700
C723        C  0.12706548  0.07435476  0.88829117     0.20700
C724        C  0.10934488  0.06272728  0.87330704     0.02900
C725        C  0.11224160  0.03681922  0.86641151    -0.22500
C726        C  0.13405944  0.02326803  0.87456079     0.12100
S727        S  0.17813418  0.01514491  0.89588774    -0.06100
C728        C  0.16523530  0.99204195  0.87739266    -0.09600
C729        C  0.14155878  0.99898823  0.86758330    -0.26200
S730        S  0.08662601  0.08330329  0.86202372    -0.03400
C731        C  0.10134119  0.10820920  0.87711140    -0.16800
C732        C  0.12226039  0.10054363  0.89088569    -0.14800
H733        H  0.16277945  0.06966444  0.90830552     0.20500
H734        H  0.09889442  0.02807147  0.85406949     0.16600
H735        H  0.13084257  0.98725834  0.85517177     0.19100
H736        H  0.13461688  0.11374537  0.90058882     0.12400
C737        C  0.12744787  0.07090289  0.11076572     0.16300
C738        C  0.12830108  0.04370754  0.11158038    -0.32700
C739        C  0.15279451  0.03173124  0.11031374     0.20700
C740        C  0.17551420  0.04605696  0.10775794     0.02900
C741        C  0.17456499  0.07332876  0.10592001    -0.22500
C742        C  0.15001826  0.08540745  0.10773517     0.12100
S743        S  0.10020367  0.08890969  0.11633478    -0.06100
C744        C  0.11923427  0.11637853  0.11439457    -0.09600
C745        C  0.14528837  0.11168260  0.10932699    -0.26200
S746        S  0.20343416  0.02782727  0.10978170    -0.03400
C747        C  0.18416610  0.00075377  0.11433100    -0.16800
C748        C  0.15761117  0.00582330  0.11367671    -0.14800
H749        H  0.11077279  0.03243098  0.11459510     0.20500
H750        H  0.19226698  0.08469724  0.10457223     0.16600
H751        H  0.16027992  0.12650411  0.10890840     0.19100
H752        H  0.14253895  0.99153396  0.11708458     0.12400
C753        C  0.21466261  0.89614362  0.98008845     0.16300
C754        C  0.21079284  0.88663096  0.00282137    -0.32700
C755        C  0.22208128  0.90040918  0.02130185     0.20700
C756        C  0.23636129  0.92291876  0.01738819     0.02900
C757        C  0.24053605  0.93230336  0.99454277    -0.22500
C758        C  0.22941300  0.91830791  0.97597387     0.12100
S759        S  0.20219752  0.88220415  0.95554714    -0.06100
C760        C  0.21729920  0.90615280  0.93928414    -0.09600
C761        C  0.23113516  0.92411633  0.95248220    -0.26200
S762        S  0.24699523  0.93759320  0.04241740    -0.03400
C763        C  0.23241045  0.91284637  0.05821501    -0.16800
C764        C  0.22002292  0.89436412  0.04462563    -0.14800
H765        H  0.19931537  0.86929015  0.00597933     0.20500
H766        H  0.25173875  0.94982129  0.99140820     0.16600
H767        H  0.24176763  0.94050709  0.94531073     0.19100
H768        H  0.20919721  0.87792912  0.05149660     0.12400
C769        C  0.04816004  0.82305810  0.88321067     0.16300
C770        C  0.07548687  0.82290502  0.88258270    -0.32700
C771        C  0.08833140  0.84700777  0.88320408     0.20700
C772        C  0.07465061  0.87019652  0.88500159     0.02900
C773        C  0.04737017  0.87029579  0.88626396    -0.22500
C774        C  0.03450698  0.84626841  0.88495035     0.12100
S775        S  0.02889550  0.79627436  0.87944168    -0.06100
C776        C  0.00221377  0.81666340  0.87958228    -0.09600
C777        C  0.00814519  0.84268942  0.88309580    -0.26200
S778        S  0.09360772  0.89745403  0.88303731    -0.03400
C779        C  0.12025398  0.87742977  0.87945472    -0.16800
C780        C  0.11454756  0.85103966  0.88029800    -0.14800
H781        H  0.08620694  0.80491315  0.88046311     0.20500
H782        H  0.03659789  0.88838907  0.88694547     0.16600
H783        H  0.99404531  0.85837195  0.88283139     0.19100
H784        H  0.12861605  0.83563232  0.87748945     0.12400
C785        C  0.04314520  0.86277460  0.11840103     0.16300
C786        C  0.06059454  0.88353318  0.12064385    -0.32700
C787        C  0.08691291  0.87876296  0.11588378     0.20700
C788        C  0.09541801  0.85462952  0.10819681     0.02900
C789        C  0.07782938  0.83374680  0.10583475    -0.22500
C790        C  0.05150500  0.83825582  0.11159453     0.12100
S791        S  0.01106304  0.86453576  0.12555531    -0.06100
C792        C  0.00858861  0.83159696  0.12029449    -0.09600
C793        C  0.03165373  0.82009343  0.11269414    -0.26200
S794        S  0.12848756  0.85270586  0.10451901    -0.03400
C795        C  0.13079807  0.88432731  0.11445539    -0.16800
C796        C  0.10705790  0.89577237  0.11964231    -0.14800
H797        H  0.05407754  0.90233769  0.12685952     0.20500
H798        H  0.08455750  0.81460915  0.10072757     0.16600
H799        H  0.03398931  0.79956944  0.10901119     0.19100
H800        H  0.10476261  0.91509885  0.12687417     0.12400
C801        C  0.93364236  0.78020952  0.01578569     0.16300
C802        C  0.94366909  0.77952773  0.99298050    -0.32700
C803        C  0.92584931  0.77949013  0.97444905     0.20700
C804        C  0.89917513  0.78033734  0.97832604     0.02900
C805        C  0.88910597  0.78108985  0.00120996    -0.22500
C806        C  0.90698063  0.78091992  0.01981436     0.12100
S807        S  0.95216151  0.78010397  0.04052899    -0.06100
C808        C  0.92374553  0.78094090  0.05665756    -0.09600
C809        C  0.90116026  0.78134743  0.04329704    -0.26200
S810        S  0.88096320  0.78020771  0.95325252    -0.03400
C811        C  0.90965139  0.77867479  0.93747668    -0.16800
C812        C  0.93194980  0.77852751  0.95113881    -0.14800
H813        H  0.96447448  0.77890622  0.98981530     0.20500
H814        H  0.86829768  0.78166746  0.00437420     0.16600
H815        H  0.88156214  0.78195060  0.05037790     0.19100
H816        H  0.95167381  0.77783647  0.94435668     0.12400
C817        C  0.88158404  0.92203793  0.87489066     0.16300
C818        C  0.88025196  0.94895867  0.87142673    -0.32700
C819        C  0.85612644  0.96111946  0.87497269     0.20700
C820        C  0.83426784  0.94728071  0.88201376     0.02900
C821        C  0.83582088  0.92040018  0.88628245    -0.22500
C822        C  0.85994923  0.90811831  0.88241481     0.12100
S823        S  0.90803688  0.90334300  0.86815743    -0.06100
C824        C  0.88994028  0.87640297  0.87573683    -0.09600
C825        C  0.86481658  0.88186625  0.88336643    -0.26200
S826        S  0.80624687  0.96543723  0.88291078    -0.03400
C827        C  0.82429870  0.99183878  0.87364650    -0.16800
C828        C  0.85061010  0.98665280  0.87049009    -0.14800
H829        H  0.89698825  0.95977273  0.86511689     0.20500
H830        H  0.81872984  0.90936039  0.89134122     0.16600
H831        H  0.85030552  0.86728547  0.88761399     0.19100
H832        H  0.86481776  0.00059037  0.86411570     0.12400
C833        C  0.94867421  0.15630515  0.88454202     0.16300
C834        C  0.92165175  0.15559609  0.88849833    -0.32700
C835        C  0.90878600  0.13175821  0.88511063     0.20700
C836        C  0.92228684  0.10960416  0.87835406     0.02900
C837        C  0.94932182  0.11012586  0.87516986    -0.22500
C838        C  0.96206398  0.13396013  0.87820946     0.12100
S839        S  0.96756524  0.18378353  0.88495458    -0.06100
C840        C  0.99364728  0.16484970  0.87639649    -0.09600
C841        C  0.98782190  0.13867443  0.87381465    -0.26200
S842        S  0.90299635  0.08360662  0.87188857    -0.03400
C843        C  0.87638927  0.10262538  0.87850543    -0.16800
C844        C  0.88234537  0.12768325  0.88567302    -0.14800
H845        H  0.91096583  0.17307634  0.89292375     0.20500
H846        H  0.95979528  0.09300004  0.86939173     0.16600
H847        H  0.00147500  0.12399538  0.86789505     0.19100
H848        H  0.86803971  0.14269979  0.88912231     0.12400
C849        C  0.84152274  0.94957996  0.10855182     0.16300
C850        C  0.84316095  0.92266860  0.10429756    -0.32700
C851        C  0.86698105  0.91015804  0.10912368     0.20700
C852        C  0.88824733  0.92396588  0.11741986     0.02900
C853        C  0.88690785  0.95089425  0.12074612    -0.22500
C854        C  0.86307461  0.96325045  0.11636182     0.12100
S855        S  0.81359859  0.96790448  0.10712892    -0.06100
C856        C  0.83127581  0.99412862  0.11723957    -0.09600
C857        C  0.85743868  0.98875704  0.12096842    -0.26200
S858        S  0.91409953  0.90514855  0.12548008    -0.03400
C859        C  0.89632519  0.87824297  0.11749375    -0.16800
C860        C  0.87172998  0.88379988  0.10867434    -0.14800
H861        H  0.82625857  0.91174982  0.09870180     0.20500
H862        H  0.90333125  0.96154577  0.12773930     0.16600
H863        H  0.87135786  0.00245035  0.12807079     0.19100
H864        H  0.85739567  0.86925707  0.10402016     0.12400
C865        C  0.96800797  0.12748660  0.11946103     0.16300
C866        C  0.94970156  0.10745229  0.12183970    -0.32700
C867        C  0.92355462  0.11344722  0.11739669     0.20700
C868        C  0.91603481  0.13803125  0.10995886     0.02900
C869        C  0.93442164  0.15810606  0.10748780    -0.22500
C870        C  0.96050306  0.15236960  0.11284787     0.12100
S871        S  0.00014958  0.12452407  0.12622030    -0.06100
C872        C  0.00354356  0.15739099  0.12097201    -0.09600
C873        C  0.98087683  0.16972762  0.11374487    -0.26200
S874        S  0.88312001  0.14163152  0.10668532    -0.03400
C875        C  0.87947530  0.11006409  0.11639216    -0.16800
C876        C  0.90266678  0.09737676  0.12124797    -0.14800
H877        H  0.95544401  0.08831298  0.12789704     0.20500
H878        H  0.92848569  0.17759063  0.10259134     0.16600
H879        H  0.97917257  0.19037670  0.11023891     0.19100
H880        H  0.90406961  0.07785156  0.12831742     0.12400
C881        C  0.77754472  0.06339101  0.97883452     0.16300
C882        C  0.77744093  0.05221460  0.00123956    -0.32700
C883        C  0.77884624  0.06900156  0.02050094     0.20700
C884        C  0.78018808  0.09576508  0.01762349     0.02900
C885        C  0.78026861  0.10696579  0.99518372    -0.22500
C886        C  0.77896973  0.09014480  0.97588730     0.12100
S887        S  0.77637272  0.04626981  0.95331376    -0.06100
C888        C  0.77791623  0.07541420  0.93836885    -0.09600
C889        C  0.77919147  0.09718559  0.95267081    -0.26200
S890        S  0.78197232  0.11269670  0.04327676    -0.03400
C891        C  0.78097573  0.08339069  0.05804430    -0.16800
C892        C  0.77930307  0.06178350  0.04362334    -0.14800
H893        H  0.77646066  0.03132474  0.00355282     0.20500
H894        H  0.78144326  0.12784963  0.99286732     0.16600
H895        H  0.78043411  0.11706382  0.94642497     0.19100
H896        H  0.77861332  0.04182770  0.04972301     0.12400
C897        C  0.24980024  0.97949229  0.23637150     0.16300
C898        C  0.25454866  0.98122621  0.26057964    -0.32700
C899        C  0.24783961  0.00459495  0.27195062     0.20700
C900        C  0.23753513  0.02543254  0.25957176     0.02900
C901        C  0.23298703  0.02376012  0.23549112    -0.22500
C902        C  0.23894691  0.00027145  0.22432733     0.12100
S903        S  0.25402637  0.95215750  0.21958252    -0.06100
C904        C  0.24032638  0.96883529  0.19645277    -0.09600
C905        C  0.23334371  0.99421945  0.20156971    -0.26200
S906        S  0.22839444  0.05115710  0.27644242    -0.03400
C907        C  0.23825706  0.03383501  0.30062070    -0.16800
C908        C  0.24828200  0.00932782  0.29569411    -0.14800
H909        H  0.26206983  0.96474616  0.27027271     0.20500
H910        H  0.22401585  0.03969949  0.22605507     0.16600
H911        H  0.22355040  0.00720634  0.18949895     0.19100
H912        H  0.25378353  0.99513493  0.30881209     0.12400
C913        C  0.16079915  0.15707021  0.27354323     0.16300
C914        C  0.14404954  0.17216527  0.25986734    -0.32700
C915        C  0.14705362  0.17079075  0.23556956     0.20700
C916        C  0.16658805  0.15600172  0.22527989     0.02900
C917        C  0.18345077  0.14097190  0.23898497    -0.22500
C918        C  0.17966678  0.14141485  0.26327028     0.12100
S919        S  0.15847066  0.15407924  0.30314856    -0.06100
C920        C  0.18233474  0.13067996  0.30152420    -0.09600
C921        C  0.19200315  0.12597815  0.27930883    -0.26200
S922        S  0.16586051  0.15566331  0.19543737    -0.03400
C923        C  0.13820457  0.17450743  0.19702204    -0.16800
C924        C  0.13067921  0.18144822  0.21941119    -0.14800
H925        H  0.12852676  0.18344995  0.26776051     0.20500
H926        H  0.19795469  0.12849247  0.23102863     0.16600
H927        H  0.20649966  0.11143097  0.27507749     0.19100
H928        H  0.11334664  0.19249814  0.22366706     0.12400
C929        C  0.22363094  0.07038881  0.51983606     0.16300
C930        C  0.22401771  0.05835767  0.49789278    -0.32700
C931        C  0.22562506  0.07443333  0.47812843     0.20700
C932        C  0.22706515  0.10128897  0.48011876     0.02900
C933        C  0.22696187  0.11331966  0.50210131    -0.22500
C934        C  0.22503879  0.09724529  0.52188190     0.12100
S935        S  0.22064746  0.05428815  0.54575827    -0.06100
C936        C  0.22109127  0.08403972  0.55958751    -0.09600
C937        C  0.22364305  0.10524228  0.54473059    -0.26200
S938        S  0.22782452  0.11739753  0.45401324    -0.03400
C939        C  0.22600294  0.08763912  0.44027473    -0.16800
C940        C  0.22515492  0.06645273  0.45528985    -0.14800
H941        H  0.22263070  0.03741953  0.49628646     0.20500
H942        H  0.22781661  0.13428516  0.50369193     0.16600
H943        H  0.22410537  0.12535779  0.55030176     0.19100
H944        H  0.22361497  0.04635825  0.44980754     0.12400
C945        C  0.23800488  0.02024989  0.73729695     0.16300
C946        C  0.24112616  0.01592420  0.76144621    -0.32700
C947        C  0.23520479  0.99097339  0.77018347     0.20700
C948        C  0.22746367  0.97111290  0.75534875     0.02900
C949        C  0.22511260  0.97521435  0.73127279    -0.22500
C950        C  0.23003162  0.00024786  0.72272891     0.12100
S951        S  0.24006280  0.04991566  0.72362027    -0.06100
C952        C  0.22961048  0.03503004  0.69835695    -0.09600
C953        C  0.22522283  0.00861997  0.70044965    -0.26200
S954        S  0.21815282  0.94325752  0.76914026    -0.03400
C955        C  0.22412992  0.95843497  0.79539794    -0.16800
C956        C  0.23369262  0.98363936  0.79334598    -0.14800
H957        H  0.24635280  0.03167058  0.77306682     0.20500
H958        H  0.21809664  0.95995136  0.71988376     0.16600
H959        H  0.21725808  0.99651884  0.68672661     0.19100
H960        H  0.23746395  0.99646226  0.80794880     0.12400
C961        C  0.15760870  0.16877555  0.72375102     0.16300
C962        C  0.13986031  0.18172685  0.73826737    -0.32700
C963        C  0.14240803  0.17811988  0.76246503     0.20700
C964        C  0.16260848  0.16359630  0.77193560     0.02900
C965        C  0.18078501  0.15125979  0.75744288    -0.22500
C966        C  0.17730688  0.15357144  0.73322881     0.12100
S967        S  0.15476635  0.16652091  0.69406097    -0.06100
C968        C  0.17945880  0.14389480  0.69468877    -0.09600
C969        C  0.18995076  0.13930027  0.71658152    -0.26200
S970        S  0.16074859  0.15932610  0.80152614    -0.03400
C971        C  0.13176008  0.17611435  0.80088448    -0.16800
C972        C  0.12470789  0.18548294  0.77905905    -0.14800
H973        H  0.12358540  0.19243149  0.73099619     0.20500
H974        H  0.19572652  0.13874994  0.76468471     0.16600
H975        H  0.20457923  0.12468415  0.72033376     0.19100
H976        H  0.10677218  0.19578783  0.77531891     0.12400
C977        C  0.84977028  0.83595004  0.27219868     0.16300
C978        C  0.86523913  0.81946655  0.25856722    -0.32700
C979        C  0.86355569  0.82206276  0.23424664     0.20700
C980        C  0.84648395  0.83953960  0.22386508     0.02900
C981        C  0.83097208  0.85603321  0.23751482    -0.22500
C982        C  0.83344278  0.85416665  0.26186371     0.18500
S983        S  0.85056435  0.83714149  0.30196264    -0.06100
C984        C  0.82953073  0.86311886  0.30038401    -0.09600
C985        C  0.82190402  0.87004539  0.27802409    -0.26200
S986        S  0.84838456  0.84063628  0.19408073    -0.03400
C987        C  0.87320313  0.81819734  0.19581501    -0.16800
C988        C  0.87902827  0.80981764  0.21821151    -0.14800
H989        H  0.87878149  0.80596283  0.26656873     0.20500
H990        H  0.81838016  0.87042611  0.22951116     0.16600
H991        H  0.80912226  0.88617682  0.27384171     0.19100
H992        H  0.89464642  0.79648726  0.22258650     0.12400
C993        C  0.75553833  0.00402182  0.23170676     0.16300
C994        C  0.74713727  0.98564179  0.24854716    -0.32700
C995        C  0.76026355  0.98499897  0.27024062     0.20700
C996        C  0.78012468  0.00251398  0.27496386     0.02900
C997        C  0.78804487  0.02105539  0.25852231    -0.22500
C998        C  0.77567692  0.02103183  0.23679014     0.12100
S999        S  0.74505726  0.00607881  0.20316257    -0.06100
C1000       C  0.76873324  0.02936950  0.19826270    -0.09600
C1001       C  0.78322142  0.03550678  0.21786955    -0.26200
S1002       S  0.79569956  0.99753833  0.30070161    -0.03400
C1003       C  0.77588505  0.97102344  0.30544519    -0.16800
C1004       C  0.75745097  0.96684511  0.28802080    -0.14800
H1005       H  0.73212125  0.97164728  0.24448367     0.20500
H1006       H  0.80410101  0.03386861  0.26201148     0.16600
H1007       H  0.79943775  0.04875184  0.21790089     0.19100
H1008       H  0.74417170  0.95047216  0.28755753     0.12400
C1009       C  0.77513524  0.91935592  0.51645253     0.16300
C1010       C  0.77247935  0.93005689  0.49411438    -0.32700
C1011       C  0.77409802  0.91315523  0.47507241     0.20700
C1012       C  0.77805250  0.88665617  0.47800314     0.02900
C1013       C  0.78056952  0.87584396  0.50049350    -0.22500
C1014       C  0.77908006  0.89287689  0.51965551     0.12100
S1015       S  0.77428807  0.93701966  0.54150475    -0.06100
C1016       C  0.77924970  0.90853101  0.55675682    -0.09600
C1017       C  0.78145409  0.88647059  0.54291891    -0.26200
S1018       S  0.78039880  0.86981817  0.45230304    -0.03400
C1019       C  0.77619587  0.89892810  0.43766758    -0.16800
C1020       C  0.77291788  0.92026787  0.45207809    -0.14800
H1021       H  0.76960315  0.95075319  0.49166673     0.20500
H1022       H  0.78386321  0.85521415  0.50292302     0.16600
H1023       H  0.78471886  0.86696409  0.54947986     0.19100
H1024       H  0.77053383  0.94011977  0.44604656     0.12400
C1025       C  0.82110422  0.85318480  0.73814187     0.16300
C1026       C  0.82354652  0.85067333  0.76241403    -0.32700
C1027       C  0.84271414  0.83370430  0.77080548     0.20700
C1028       C  0.85840556  0.81948428  0.75569303     0.02900
C1029       C  0.85520294  0.82115391  0.73142936    -0.22500
C1030       C  0.83638450  0.83851767  0.72302834     0.12100
S1031       S  0.80230665  0.87600139  0.72469257    -0.06100
C1032       C  0.81520394  0.86568737  0.69847543    -0.09600
C1033       C  0.83263522  0.84524120  0.70010410    -0.26200
S1034       S  0.88284367  0.80279898  0.76909619    -0.03400
C1035       C  0.87177152  0.81508296  0.79529967    -0.16800
C1036       C  0.84999114  0.83083211  0.79368153    -0.14800
H1037       H  0.81212255  0.86260364  0.77420797     0.20500
H1038       H  0.86788276  0.81059049  0.71961096     0.16600
H1039       H  0.84363035  0.83733857  0.68555260     0.19100
H1040       H  0.84112914  0.84103990  0.80823688     0.12400
C1041       C  0.74792733  0.97981320  0.73136691     0.16300
C1042       C  0.74189511  0.98208219  0.75535005    -0.32700
C1043       C  0.74888410  0.00532866  0.76676741     0.20700
C1044       C  0.76028555  0.02572570  0.75452356     0.02900
C1045       C  0.76581540  0.02364518  0.73059475    -0.22500
C1046       C  0.75998650  0.00009494  0.71951066     0.12100
S1047       S  0.74475278  0.95202706  0.71500661    -0.06100
C1048       C  0.76075086  0.96773798  0.69244640    -0.09600
C1049       C  0.76744928  0.99324645  0.69731870    -0.26200
S1050       S  0.77030594  0.05094350  0.77156247    -0.03400
C1051       C  0.75963724  0.03388766  0.79569004    -0.16800
C1052       C  0.74837976  0.00997156  0.79055235    -0.14800
H1053       H  0.73366581  0.96586033  0.76498381     0.20500
H1054       H  0.77589289  0.03910808  0.72136574     0.16600
H1055       H  0.77864198  0.00564223  0.68567864     0.19100
H1056       H  0.74235175  0.99584564  0.80357728     0.12400
C1057       C  0.02401979  0.75195637  0.26366682     0.16300
C1058       C  0.02365811  0.74823524  0.23924116    -0.32700
C1059       C  0.00021015  0.75339939  0.22729378     0.20700
C1060       C  0.97793817  0.76087409  0.23935560     0.02900
C1061       C  0.97822202  0.76422249  0.26368356    -0.22500
C1062       C  0.00182588  0.76017463  0.27542493     0.12100
S1063       S  0.05121245  0.75035731  0.28101621    -0.06100
C1064       C  0.03257952  0.76170626  0.30402237    -0.09600
C1065       C  0.00666277  0.76594505  0.29844657    -0.26200
S1066       S  0.95223587  0.76888640  0.22190917    -0.03400
C1067       C  0.97155275  0.76267707  0.19790658    -0.16800
C1068       C  0.99665069  0.75442717  0.20335514    -0.14800
H1069       H  0.04125037  0.74302356  0.22981797     0.20500
H1070       H  0.96113380  0.77125557  0.27288408     0.16600
H1071       H  0.99246046  0.77437195  0.31027647     0.19100
H1072       H  0.01196883  0.75130435  0.19057656     0.12400
C1073       C  0.14167745  0.82368092  0.25488248     0.16300
C1074       C  0.14471045  0.82578459  0.23055194    -0.32700
C1075       C  0.16376672  0.84301321  0.22211367     0.20700
C1076       C  0.17921179  0.85730310  0.23727750     0.02900
C1077       C  0.17679253  0.85451545  0.26154793    -0.22500
C1078       C  0.15762826  0.83749964  0.26996516     0.12100
S1079       S  0.11758044  0.80648822  0.26856132    -0.06100
C1080       C  0.12937085  0.81784538  0.29482634    -0.09600
C1081       C  0.15093186  0.83387477  0.29295351    -0.26200
S1082       S  0.19870069  0.87967150  0.22391219    -0.03400
C1083       C  0.18608407  0.86962846  0.19757624    -0.16800
C1084       C  0.16802968  0.84966427  0.19914245    -0.14800
H1085       H  0.13197692  0.81539269  0.21873944     0.20500
H1086       H  0.18850388  0.86603980  0.27336440     0.16600
H1087       H  0.16017843  0.84361736  0.30751515     0.19100
H1088       H  0.15720259  0.84191007  0.18449375     0.12400
C1089       C  0.91525480  0.84695885  0.39251692     0.16300
C1090       C  0.93370697  0.82681393  0.39485504    -0.32700
C1091       C  0.95998549  0.83279371  0.39008926     0.20700
C1092       C  0.96741931  0.85792318  0.38418328     0.02900
C1093       C  0.94913300  0.87791280  0.38196604    -0.22500
C1094       C  0.92296134  0.87175175  0.38583480     0.12100
S1095       S  0.88214400  0.84341411  0.39488775    -0.06100
C1096       C  0.87891425  0.87532485  0.38583680    -0.09600
C1097       C  0.90230379  0.88799466  0.38192274    -0.26200
S1098       S  0.99953292  0.86146620  0.37785166    -0.03400
C1099       C  0.00333892  0.82850308  0.38226117    -0.16800
C1100       C  0.98066914  0.81563148  0.38899212    -0.14800
H1101       H  0.92771384  0.80717959  0.39915094     0.20500
H1102       H  0.95495602  0.89722207  0.37640037     0.16600
H1103       H  0.90405715  0.90767697  0.37526643     0.19100
H1104       H  0.97914653  0.79484943  0.39179247     0.12400
C1105       C  0.16584312  0.95234616  0.38890254     0.16300
C1106       C  0.16452596  0.92540071  0.39309697    -0.32700
C1107       C  0.14152992  0.91236005  0.38664197     0.20700
C1108       C  0.12069374  0.92568320  0.37687329     0.02900
C1109       C  0.12163227  0.95263462  0.37357390    -0.22500
C1110       C  0.14468343  0.96551675  0.37959054     0.12100
S1111       S  0.19309661  0.97130865  0.39218431    -0.06100
C1112       C  0.17562494  0.99710410  0.38085962    -0.09600
C1113       C  0.15002155  0.99114501  0.37535447    -0.26200
S1114       S  0.09599719  0.90631290  0.36728952    -0.03400
C1115       C  0.11376117  0.87980298  0.37648454    -0.16800
C1116       C  0.13740455  0.88591690  0.38690200    -0.14800
H1117       H  0.18114791  0.91486890  0.39989545     0.20500
H1118       H  0.10559647  0.96292847  0.36545648     0.16600
H1119       H  0.13642788  0.00451233  0.36723459     0.19100
H1120       H  0.15157866  0.87172329  0.39275100     0.12400
C1121       C  0.95359907  0.83489670  0.60941074     0.16300
C1122       C  0.92646425  0.83485579  0.60592081    -0.32700
C1123       C  0.91275821  0.85803494  0.61051154     0.20700
C1124       C  0.92560185  0.88025314  0.61796566     0.02900
C1125       C  0.95270648  0.88052989  0.62062842    -0.22500
C1126       C  0.96629687  0.85737297  0.61636000     0.12100
S1127       S  0.97348158  0.80812085  0.60787933    -0.06100
C1128       C  0.99907172  0.82755064  0.61667722    -0.09600
C1129       C  0.99231799  0.85338029  0.62017661    -0.26200
S1130       S  0.90554693  0.90530963  0.62563959    -0.03400
C1131       C  0.87943148  0.88588176  0.61861266    -0.16800
C1132       C  0.88613336  0.86134656  0.61040324    -0.14800
H1133       H  0.91634451  0.81724060  0.60095413     0.20500
H1134       H  0.96264595  0.89772520  0.62691052     0.16600
H1135       H  0.00546289  0.86820328  0.62661089     0.19100
H1136       H  0.87226071  0.84617148  0.60627490     0.12400
C1137       C  0.14241444  0.91838231  0.61173413     0.16300
C1138       C  0.16203415  0.93707522  0.60786526    -0.32700
C1139       C  0.15741622  0.96257114  0.61582071     0.20700
C1140       C  0.13392350  0.96919717  0.62631963     0.02900
C1141       C  0.11441116  0.95063730  0.63009941    -0.22500
C1142       C  0.11937156  0.92510014  0.62293464     0.12100
S1143       S  0.14494259  0.88587347  0.60556609    -0.06100
C1144       C  0.11512821  0.88131902  0.61908663    -0.09600
C1145       C  0.10372790  0.90401632  0.62720068    -0.26200
S1146       S  0.13193566  0.00065685  0.63527221    -0.03400
C1147       C  0.16343701  0.00509580  0.62552858    -0.16800
C1148       C  0.17464848  0.98316971  0.61546491    -0.14800
H1149       H  0.18041044  0.93176801  0.59981790     0.20500
H1150       H  0.09647128  0.95570627  0.63902762     0.16600
H1151       H  0.08548604  0.90487727  0.63676448     0.19100
H1152       H  0.19437457  0.98222444  0.60872208     0.12400
C1153       C  0.07913477  0.77438887  0.51860873     0.16300
C1154       C  0.06839212  0.77087888  0.49637981    -0.32700
C1155       C  0.08431643  0.77584011  0.47696012     0.20700
C1156       C  0.11002063  0.78363068  0.47944463     0.02900
C1157       C  0.12091297  0.78699278  0.50183285    -0.22500
C1158       C  0.10478628  0.78228967  0.52138769     0.12100
S1159       S  0.06226851  0.77050892  0.54403509    -0.06100
C1160       C  0.08987170  0.77977573  0.55894125    -0.09600
C1161       C  0.11118309  0.78528845  0.54465820    -0.26200
S1162       S  0.12572672  0.78904750  0.45335278    -0.03400
C1163       C  0.09718621  0.78100384  0.43911920    -0.16800
C1164       C  0.07687511  0.77434039  0.45401344    -0.14800
H1165       H  0.04827591  0.76496568  0.49430760     0.20500
H1166       H  0.14087788  0.79335682  0.50390248     0.16600
H1167       H  0.13000420  0.79172962  0.55089037     0.19100
H1168       H  0.05750402  0.76889617  0.44834688     0.12400
C1169       C  0.97214782  0.76223056  0.75747882     0.16300
C1170       C  0.97419027  0.76848486  0.73370372    -0.32700
C1171       C  0.99835241  0.76474003  0.72277502     0.20700
C1172       C  0.01945067  0.75435459  0.73470142     0.02900
C1173       C  0.01739275  0.74804123  0.75860257    -0.22500
C1174       C  0.99333759  0.75259936  0.76977777     0.12100
S1175       S  0.94548200  0.76874886  0.77427484    -0.06100
C1176       C  0.96297137  0.75897783  0.79834113    -0.09600
C1177       C  0.98818509  0.75079395  0.79338661    -0.26200
S1178       S  0.04743005  0.75261971  0.71828947    -0.03400
C1179       C  0.03052939  0.76669448  0.69551526    -0.16800
C1180       C  0.00467208  0.77208024  0.70043289    -0.14800
H1181       H  0.95795912  0.77708042  0.72438702     0.20500
H1182       H  0.03409402  0.74098902  0.76827512     0.16600
H1183       H  0.00257843  0.74591621  0.80650653     0.19100
H1184       H  0.99145737  0.78180432  0.68852448     0.12400
C1185       C  0.18288115  0.84227467  0.76258923     0.16300
C1186       C  0.18146785  0.84140184  0.73803256    -0.32700
C1187       C  0.15944232  0.82957872  0.72805000     0.20700
C1188       C  0.14011423  0.81863802  0.74197828     0.02900
C1189       C  0.14187159  0.81889821  0.76636609    -0.22500
C1190       C  0.16343435  0.83123185  0.77628777     0.12100
S1191       S  0.20543683  0.85949588  0.77820029    -0.06100
C1192       C  0.18814334  0.85197469  0.80322130    -0.09600
C1193       C  0.16645545  0.83659621  0.79952820    -0.26200
S1194       S  0.11376455  0.80754715  0.72708711    -0.03400
C1195       C  0.12865137  0.81779236  0.70164438    -0.16800
C1196       C  0.15308821  0.82885311  0.70467293    -0.14800
H1197       H  0.19610526  0.85078097  0.72723903     0.20500
H1198       H  0.12632189  0.81111910  0.77717480     0.16600
H1199       H  0.15221047  0.83179042  0.81289711     0.19100
H1200       H  0.16486521  0.83707185  0.69074365     0.12400
C1201       C  0.84408104  0.14573579  0.27447041     0.16300
C1202       C  0.82694590  0.13116176  0.26073913    -0.32700
C1203       C  0.82843485  0.13446279  0.23643743     0.20700
C1204       C  0.84527039  0.15237117  0.22627283     0.02900
C1205       C  0.86232103  0.16706542  0.24004744    -0.22500
C1206       C  0.86174956  0.16282306  0.26428544     0.12100
S1207       S  0.84685961  0.14274987  0.30404781    -0.06100
C1208       C  0.87287275  0.16378930  0.30252915    -0.09600
C1209       C  0.87855025  0.17312352  0.28035416    -0.26200
S1210       S  0.84515841  0.15228946  0.19640463    -0.03400
C1211       C  0.82323147  0.12698731  0.19771947    -0.16800
C1212       C  0.81578967  0.11973899  0.22012348    -0.14800
H1213       H  0.81401533  0.11706060  0.26851915     0.20500
H1214       H  0.87626281  0.18021807  0.23214981     0.16600
H1215       H  0.89440496  0.18628650  0.27619711     0.19100
H1216       H  0.80300588  0.10371847  0.22421673     0.12400
C1217       C  0.98979546  0.23688011  0.26784330     0.16300
C1218       C  0.99341098  0.24481519  0.24441742    -0.32700
C1219       C  0.01438256  0.23381383  0.23184488     0.20700
C1220       C  0.03131264  0.21640057  0.24250188     0.02900
C1221       C  0.02812633  0.20907951  0.26588272    -0.22500
C1222       C  0.00681437  0.21928496  0.27806685     0.12100
S1223       S  0.96364263  0.24475898  0.28532900    -0.06100
C1224       C  0.97556296  0.22340218  0.30604689    -0.09600
C1225       C  0.99884987  0.21164323  0.29984206    -0.26200
S1226       S  0.05347601  0.20259341  0.22422075    -0.03400
C1227       C  0.03996955  0.22011347  0.20164766    -0.16800
C1228       C  0.01949786  0.23629860  0.20818875    -0.14800
H1229       H  0.97967026  0.25778074  0.23600336     0.20500
H1230       H  0.04081920  0.19472445  0.27382457     0.16600
H1231       H  0.00867956  0.19696747  0.31022859     0.19100
H1232       H  0.00779062  0.24754757  0.19610652     0.12400
C1233       C  0.07881535  0.11469513  0.38368972     0.16300
C1234       C  0.05169408  0.11416172  0.38128470    -0.32700
C1235       C  0.03793063  0.13722500  0.38546421     0.20700
C1236       C  0.05046170  0.15991024  0.39206855     0.02900
C1237       C  0.07770115  0.16024312  0.39523704    -0.22500
C1238       C  0.09161141  0.13710569  0.39072689     0.12100
S1239       S  0.09887306  0.08964887  0.37612069    -0.06100
C1240       C  0.12505328  0.10926172  0.38255858    -0.09600
C1241       C  0.11832693  0.13394053  0.39050625    -0.26200
S1242       S  0.03016366  0.18647161  0.39354920    -0.03400
C1243       C  0.00467876  0.16663982  0.38513776    -0.16800
C1244       C  0.01182158  0.14085750  0.38185792    -0.14800
H1245       H  0.04183814  0.09679633  0.37526971     0.20500
H1246       H  0.08771512  0.17801041  0.39991243     0.16600
H1247       H  0.13217615  0.14928653  0.39414670     0.19100
H1248       H  0.99884123  0.12575086  0.37567720     0.12400
C1249       C  0.83724479  0.03766801  0.39123408     0.16300
C1250       C  0.83778284  0.06488775  0.39360437    -0.32700
C1251       C  0.86202729  0.07747304  0.39142441     0.20700
C1252       C  0.88471185  0.06352766  0.38724437     0.02900
C1253       C  0.88427642  0.03631921  0.38561373    -0.22500
C1254       C  0.86005922  0.02380102  0.38754846     0.12100
S1255       S  0.80959355  0.01898021  0.39040848    -0.06100
C1256       C  0.82901256  0.99220688  0.38504100    -0.09600
C1257       C  0.85550223  0.99777184  0.38431493    -0.26200
S1258       S  0.91150653  0.08238895  0.38191873    -0.03400
C1259       C  0.89211335  0.10944514  0.38557583    -0.16800
C1260       C  0.86627719  0.10389784  0.39093303    -0.14800
H1261       H  0.81996333  0.07586742  0.39596573     0.20500
H1262       H  0.90188468  0.02546952  0.38185513     0.16600
H1263       H  0.87058724  0.98374819  0.38019385     0.19100
H1264       H  0.85103681  0.11838535  0.39245182     0.12400
C1265       C  0.03260098  0.13475391  0.61807931     0.16300
C1266       C  0.05143732  0.11539358  0.62089181    -0.32700
C1267       C  0.07716488  0.12163922  0.61513738     0.20700
C1268       C  0.08384319  0.14574401  0.60594600     0.02900
C1269       C  0.06481897  0.16516707  0.60287551    -0.22500
C1270       C  0.03910953  0.15926804  0.60967859     0.12100
S1271       S  0.00103118  0.13140113  0.62650037    -0.06100
C1272       C  0.99636943  0.16365141  0.61947357    -0.09600
C1273       C  0.01826476  0.17614252  0.61054632    -0.26200
S1274       S  0.11666877  0.14990013  0.60193254    -0.03400
C1275       C  0.12121742  0.11938465  0.61385901    -0.16800
C1276       C  0.09845196  0.10650434  0.61969405    -0.14800
H1277       H  0.04645804  0.09667809  0.62843005     0.20500
H1278       H  0.07005881  0.18438493  0.59665115     0.16600
H1279       H  0.01910394  0.19652116  0.60575627     0.19100
H1280       H  0.09763421  0.08770025  0.62828305     0.12400
C1281       C  0.84988859  0.08330788  0.60837671     0.16300
C1282       C  0.82914806  0.06557054  0.60600129    -0.32700
C1283       C  0.83452125  0.03900814  0.60959115     0.20700
C1284       C  0.85968321  0.03061965  0.61425253     0.02900
C1285       C  0.88031019  0.04824165  0.61654875    -0.22500
C1286       C  0.87471780  0.07473874  0.61405971     0.12100
S1287       S  0.84707900  0.11645055  0.60708633    -0.06100
C1288       C  0.87932242  0.11863544  0.61533059    -0.09600
C1289       C  0.89159091  0.09487485  0.61831318    -0.26200
S1290       S  0.86240973  0.99817901  0.61927013    -0.03400
C1291       C  0.82906040  0.99559644  0.61623095    -0.16800
C1292       C  0.81669419  0.01888487  0.61070858    -0.14800
H1293       H  0.80952489  0.07228713  0.60258993     0.20500
H1294       H  0.89966102  0.04163909  0.62120806     0.16600
H1295       H  0.91149128  0.09248122  0.62421531     0.19100
H1296       H  0.79583277  0.02121335  0.60886322     0.12400
C1297       C  0.92577841  0.22220812  0.51957041     0.16300
C1298       C  0.93720650  0.22454943  0.49742869    -0.32700
C1299       C  0.92142270  0.21974279  0.47801665     0.20700
C1300       C  0.89533968  0.21313245  0.48048214     0.02900
C1301       C  0.88383790  0.21096588  0.50266835    -0.22500
C1302       C  0.89969689  0.21559981  0.52212912     0.12100
S1303       S  0.94206126  0.22605259  0.54517766    -0.06100
C1304       C  0.91345011  0.21868920  0.55958032    -0.09600
C1305       C  0.89242144  0.21367346  0.54515621    -0.26200
S1306       S  0.87974554  0.20737983  0.45472066    -0.03400
C1307       C  0.90876359  0.21372713  0.44055591    -0.16800
C1308       C  0.92924632  0.22014936  0.45513796    -0.14800
H1309       H  0.95761918  0.22946251  0.49543508     0.20500
H1310       H  0.86356452  0.20553681  0.50467589     0.16600
H1311       H  0.87312993  0.20824646  0.55116652     0.19100
H1312       H  0.94890498  0.22445695  0.44934120     0.12400
C1313       C  0.00623426  0.22648250  0.72320321     0.16300
C1314       C  0.02739826  0.22213153  0.73807944    -0.32700
C1315       C  0.02482518  0.22970874  0.76147337     0.20700
C1316       C  0.00251364  0.24196281  0.76965274     0.02900
C1317       C  0.98152368  0.24705998  0.75451454    -0.22500
C1318       C  0.98375519  0.23866923  0.73116141     0.12100
S1319       S  0.00420326  0.21453199  0.69552784    -0.06100
C1320       C  0.97266055  0.22579591  0.69447567    -0.09600
C1321       C  0.96437720  0.23865858  0.71449807    -0.26200
S1322       S  0.00207348  0.24635416  0.79938436    -0.03400
C1323       C  0.03200849  0.23118910  0.80063464    -0.16800
C1324       C  0.04174660  0.22358360  0.77910863    -0.14800
H1325       H  0.04447986  0.21168862  0.73204710     0.20500
H1326       H  0.96363993  0.25565175  0.76100250     0.16600
H1327       H  0.94471908  0.24565728  0.71738177     0.19100
H1328       H  0.05931288  0.21216989  0.77673820     0.12400
C1329       C  0.83787697  0.15776321  0.77319062     0.16300
C1330       C  0.85463404  0.17305460  0.75958445    -0.32700
C1331       C  0.85237121  0.17120425  0.73524527     0.20700
C1332       C  0.83350374  0.15577931  0.72483878     0.02900
C1333       C  0.81657820  0.14066940  0.73845278    -0.22500
C1334       C  0.81963393  0.14161499  0.76277075     0.12100
S1335       S  0.83982792  0.15470006  0.80284508    -0.06100
C1336       C  0.81673603  0.13057022  0.80096986    -0.09600
C1337       C  0.80744180  0.12590308  0.77868062    -0.26200
S1338       S  0.83501696  0.15496554  0.69503413    -0.03400
C1339       C  0.86199899  0.17469669  0.69677557    -0.16800
C1340       C  0.86886684  0.18205299  0.71918416    -0.14800
H1341       H  0.86970284  0.18476888  0.76757878     0.20500
H1342       H  0.80262033  0.12768205  0.73041753     0.16600
H1343       H  0.79362405  0.11078621  0.77422543     0.19100
H1344       H  0.88574946  0.19371186  0.72352091     0.12400
C1345       C  0.33831651  0.19365325  0.65295246     0.16300
C1346       C  0.31480592  0.18263558  0.66045730    -0.32700
C1347       C  0.30689130  0.15941049  0.64996748     0.20700
C1348       C  0.32213421  0.14700927  0.63331648     0.02900
C1349       C  0.34608696  0.15786178  0.62606764    -0.22500
C1350       C  0.35362617  0.18176965  0.63601469     0.12100
S1351       S  0.34897159  0.22341879  0.66146268    -0.06100
C1352       C  0.37419395  0.22060544  0.64162361    -0.09600
C1353       C  0.37458472  0.19713033  0.62953815    -0.26200
S1354       S  0.30772015  0.11992775  0.62153783    -0.03400
C1355       C  0.28064795  0.12611983  0.63866546    -0.16800
C1356       C  0.28325361  0.14755943  0.65312953    -0.14800
H1357       H  0.30249916  0.19251010  0.67304351     0.20500
H1358       H  0.35761854  0.14878933  0.61248072     0.16600
H1359       H  0.38823434  0.19238345  0.61572698     0.19100
H1360       H  0.26805798  0.15489956  0.66455704     0.12400
C1361       C  0.34140961  0.19174997  0.34232938     0.16300
C1362       C  0.31799680  0.18005378  0.33559793    -0.32700
C1363       C  0.31067664  0.15701514  0.34693397     0.20700
C1364       C  0.32635668  0.14549514  0.36373421     0.02900
C1365       C  0.35019836  0.15698993  0.37018473    -0.22500
C1366       C  0.35718696  0.18062342  0.35929848     0.12100
S1367       S  0.35138538  0.22152766  0.33286090    -0.06100
C1368       C  0.37697648  0.21959328  0.35224060    -0.09600
C1369       C  0.37798027  0.19645655  0.36488662    -0.26200
S1370       S  0.31273359  0.11846020  0.37650213    -0.03400
C1371       C  0.28543143  0.12333551  0.35943682    -0.16800
C1372       C  0.28734044  0.14443729  0.34438022    -0.14800
H1373       H  0.30533726  0.18926736  0.32291160     0.20500
H1374       H  0.36210900  0.14857163  0.38383753     0.16600
H1375       H  0.39187068  0.19235831  0.37862305     0.19100
H1376       H  0.27193601  0.15093601  0.33282880     0.12400
C1377       C  0.42786044  0.26896238  0.47763511     0.16300
C1378       C  0.43868754  0.26689584  0.49995203    -0.32700
C1379       C  0.42230913  0.27149302  0.51909626     0.20700
C1380       C  0.39617559  0.27760835  0.51629653     0.02900
C1381       C  0.38524238  0.27950994  0.49387280    -0.22500
C1382       C  0.40175482  0.27514097  0.47462238     0.12100
S1383       S  0.44505066  0.26546190  0.45235123    -0.06100
C1384       C  0.41688332  0.27256507  0.43735254    -0.09600
C1385       C  0.39525455  0.27710278  0.45140915    -0.26200
S1386       S  0.37990797  0.28304161  0.54200194    -0.03400
C1387       C  0.40875815  0.27719773  0.55649140    -0.16800
C1388       C  0.42961461  0.27122707  0.54203222    -0.14800
H1389       H  0.45913329  0.26237326  0.50228419     0.20500
H1390       H  0.36492893  0.28458558  0.49152852     0.16600
H1391       H  0.37609874  0.28235437  0.44502546     0.19100
H1392       H  0.44923806  0.26720234  0.54797750     0.12400
C1393       C  0.17435078  0.64515193  0.62839317     0.16300
C1394       C  0.15176568  0.65864240  0.62130035    -0.32700
C1395       C  0.14578370  0.68218922  0.63277557     0.20700
C1396       C  0.16131797  0.69140375  0.65076152     0.02900
C1397       C  0.18334755  0.67771873  0.65812240    -0.22500
C1398       C  0.18962619  0.65472457  0.64637113     0.12100
S1399       S  0.18708022  0.61786064  0.61527540    -0.06100
C1400       C  0.21340930  0.62005385  0.63394630    -0.09600
C1401       C  0.21175194  0.64043772  0.64968661    -0.26200
S1402       S  0.15277644  0.72123460  0.66109713    -0.03400
C1403       C  0.12799378  0.72184698  0.64089281    -0.16800
C1404       C  0.12623902  0.69955670  0.62719935    -0.14800
H1405       H  0.14009215  0.65174066  0.60686165     0.20500
H1406       H  0.19581801  0.68535126  0.67172675     0.16600
H1407       H  0.22673301  0.64539051  0.66223337     0.19100
H1408       H  0.11252359  0.69693900  0.61305567     0.12400
C1409       C  0.38170440  0.42419805  0.61669259     0.16300
C1410       C  0.38020434  0.45123190  0.61921752    -0.32700
C1411       C  0.35610096  0.46316504  0.61504578     0.20700
C1412       C  0.33444951  0.44896476  0.60826701     0.02900
C1413       C  0.33617423  0.42194023  0.60497090    -0.22500
C1414       C  0.36026317  0.40990178  0.60948883     0.12100
S1415       S  0.40815414  0.40589323  0.62417420    -0.06100
C1416       C  0.39033255  0.37860929  0.61734469    -0.09600
C1417       C  0.36528138  0.38364534  0.60942672    -0.26200
S1418       S  0.30632915  0.46687266  0.60673291    -0.03400
C1419       C  0.32398931  0.49365450  0.61551394    -0.16800
C1420       C  0.35031619  0.48878206  0.61886851    -0.14800
H1421       H  0.39677153  0.46233029  0.62532332     0.20500
H1422       H  0.31920587  0.41064282  0.60018547     0.16600
H1423       H  0.35095974  0.36883007  0.60546118     0.19100
H1424       H  0.36425268  0.50291836  0.62520874     0.12400
C1425       C  0.17530107  0.64203389  0.36511267     0.16300
C1426       C  0.15343724  0.65580216  0.37354148    -0.32700
C1427       C  0.14709946  0.67956658  0.36252938     0.20700
C1428       C  0.16151538  0.68869882  0.34364600     0.02900
C1429       C  0.18275300  0.67468111  0.33489828    -0.22500
C1430       C  0.18948799  0.65149202  0.34625273     0.12100
S1431       S  0.18873474  0.61477181  0.37776924    -0.06100
C1432       C  0.21397473  0.61681685  0.35776755    -0.09600
C1433       C  0.21136865  0.63709772  0.34189515    -0.26200
S1434       S  0.15287453  0.71887559  0.33407718    -0.03400
C1435       C  0.12961126  0.71971058  0.35584479    -0.16800
C1436       C  0.12836858  0.69724858  0.36945592    -0.14800
H1437       H  0.14272386  0.64901790  0.38869676     0.20500
H1438       H  0.19444096  0.68227454  0.32062633     0.16600
H1439       H  0.22574840  0.64210890  0.32870287     0.19100
H1440       H  0.11562862  0.69468199  0.38440356     0.12400
C1441       C  0.36456222  0.46268684  0.37516768     0.16300
C1442       C  0.38558973  0.44549232  0.37317327    -0.32700
C1443       C  0.38160459  0.41962868  0.37995173     0.20700
C1444       C  0.35803283  0.41137369  0.38929602     0.02900
C1445       C  0.33694246  0.42875859  0.39154271    -0.22500
C1446       C  0.34060182  0.45452551  0.38377845     0.12100
S1447       S  0.36519190  0.49400240  0.36563225    -0.06100
C1448       C  0.33252873  0.49632347  0.37250711    -0.09600
C1449       C  0.32195482  0.47383981  0.38223441    -0.26200
S1450       S  0.35674186  0.37859185  0.39466968    -0.03400
C1451       C  0.38777806  0.37598985  0.38315816    -0.16800
C1452       C  0.39867205  0.39950498  0.37641362    -0.14800
H1453       H  0.40391498  0.45173051  0.36554395     0.20500
H1454       H  0.31817625  0.42217235  0.39795292     0.16600
H1455       H  0.30169789  0.47150614  0.38719565     0.19100
H1456       H  0.41744988  0.40153393  0.36787355     0.12400
C1457       C  0.27467313  0.56656300  0.47593972     0.16300
C1458       C  0.27204673  0.55545644  0.49824469    -0.32700
C1459       C  0.27552134  0.57165922  0.51766949     0.20700
C1460       C  0.28119571  0.59787697  0.51507280     0.02900
C1461       C  0.28370138  0.60907408  0.49266318    -0.22500
C1462       C  0.28034011  0.59277120  0.47314435     0.12100
S1463       S  0.27185462  0.54979795  0.45038972    -0.06100
C1464       C  0.27837371  0.57829062  0.43547421    -0.09600
C1465       C  0.28237821  0.59969367  0.44986898    -0.26200
S1466       S  0.28488210  0.61400898  0.54105546    -0.03400
C1467       C  0.27883014  0.58505040  0.55550524    -0.16800
C1468       C  0.27416144  0.56420914  0.54071765    -0.14800
H1469       H  0.26771110  0.53496910  0.50036587     0.20500
H1470       H  0.28825348  0.62951736  0.49054380     0.16600
H1471       H  0.28687608  0.61911719  0.44367350     0.19100
H1472       H  0.27005057  0.54455662  0.54652340     0.12400
C1473       C  0.64430502  0.81777667  0.62630831     0.16300
C1474       C  0.65655816  0.84112479  0.61917087    -0.32700
C1475       C  0.68044254  0.84778225  0.62986026     0.20700
C1476       C  0.69109637  0.83205272  0.64711420     0.02900
C1477       C  0.67878651  0.80915228  0.65437576    -0.22500
C1478       C  0.65546616  0.80228519  0.64343619     0.12100
S1479       S  0.61647154  0.80460782  0.61447205    -0.06100
C1480       C  0.62060946  0.77782400  0.63246926    -0.09600
C1481       C  0.64206684  0.77962641  0.64703845    -0.26200
S1482       S  0.72076098  0.84174983  0.65690211    -0.03400
C1483       C  0.71954473  0.86737953  0.63744357    -0.16800
C1484       C  0.69670270  0.86843371  0.62431245    -0.14800
H1485       H  0.64836225  0.85301668  0.60540945     0.20500
H1486       H  0.68758019  0.79664499  0.66742223     0.16600
H1487       H  0.64817345  0.76456691  0.65914458     0.19100
H1488       H  0.69290920  0.88251328  0.61064842     0.12400
C1489       C  0.44710859  0.65892265  0.61550077     0.16300
C1490       C  0.42045394  0.65715306  0.61009418    -0.32700
C1491       C  0.40726412  0.63423314  0.61657811     0.20700
C1492       C  0.42010768  0.61405792  0.62787327     0.02900
C1493       C  0.44675844  0.61556304  0.63271266    -0.22500
C1494       C  0.45985198  0.63839469  0.62632046     0.12100
S1495       S  0.46630716  0.68580612  0.61115643    -0.06100
C1496       C  0.49168422  0.66898674  0.62392870    -0.09600
C1497       C  0.48538423  0.64390699  0.63088873    -0.26200
S1498       S  0.40050088  0.58906181  0.63649470    -0.03400
C1499       C  0.37459669  0.60565247  0.62454276    -0.16800
C1500       C  0.38105010  0.62931993  0.61428833    -0.14800
H1501       H  0.41028733  0.67320887  0.60190270     0.20500
H1502       H  0.45668984  0.59994518  0.64179363     0.16600
H1503       H  0.49852471  0.63073797  0.63982608     0.19100
H1504       H  0.36712463  0.64282768  0.60686678     0.12400
C1505       C  0.64804078  0.81468536  0.36194445     0.16300
C1506       C  0.65932090  0.83890008  0.36765312    -0.32700
C1507       C  0.68409664  0.84473596  0.35817049     0.20700
C1508       C  0.69655006  0.82740323  0.34330534     0.02900
C1509       C  0.68522643  0.80356322  0.33744481    -0.22500
C1510       C  0.66096849  0.79752725  0.34728086     0.12100
S1511       S  0.61928389  0.80251742  0.37296823    -0.06100
C1512       C  0.62528409  0.77392011  0.35800466    -0.09600
C1513       C  0.64810160  0.77436066  0.34493409    -0.26200
S1514       S  0.72700913  0.83652440  0.33488386    -0.03400
C1515       C  0.72369949  0.86398208  0.35188148    -0.16800
C1516       C  0.69960456  0.86605517  0.36306877    -0.14800
H1517       H  0.64969389  0.85211578  0.37958657     0.20500
H1518       H  0.69540474  0.78981334  0.32636977     0.16600
H1519       H  0.65546918  0.75811002  0.33484418     0.19100
H1520       H  0.69438622  0.88135205  0.37518913     0.12400
C1521       C  0.44841366  0.66075126  0.38110368     0.16300
C1522       C  0.42103924  0.66084285  0.38236699    -0.32700
C1523       C  0.40795405  0.63722029  0.37841450     0.20700
C1524       C  0.42155435  0.61452029  0.37356713     0.02900
C1525       C  0.44887387  0.61427110  0.37306672    -0.22500
C1526       C  0.46191358  0.63788795  0.37678047     0.12100
S1527       S  0.46785839  0.68779945  0.38252072    -0.06100
C1528       C  0.49444531  0.66808212  0.37715013    -0.09600
C1529       C  0.48826085  0.64190389  0.37484413    -0.26200
S1530       S  0.40227242  0.58859765  0.36659172    -0.03400
C1531       C  0.37553952  0.60833653  0.37065432    -0.16800
C1532       C  0.38142532  0.63365484  0.37715399    -0.14800
H1533       H  0.41038435  0.67872186  0.38532721     0.20500
H1534       H  0.45948878  0.59665425  0.36892245     0.16600
H1535       H  0.50215340  0.62676776  0.37053033     0.19100
H1536       H  0.36713699  0.64895230  0.37947480     0.12400
C1537       C  0.56587363  0.71183685  0.51716208     0.16300
C1538       C  0.55496356  0.71265972  0.49473704    -0.32700
C1539       C  0.57203682  0.71241550  0.47554927     0.20700
C1540       C  0.59882996  0.71131796  0.47849196     0.02900
C1541       C  0.60977880  0.71045176  0.50098661    -0.22500
C1542       C  0.59265854  0.71075266  0.52023465     0.12100
S1543       S  0.54834755  0.71230777  0.54254466    -0.06100
C1544       C  0.57735782  0.71110980  0.55765050    -0.09600
C1545       C  0.59940112  0.71025510  0.54350161    -0.26200
S1546       S  0.61607882  0.71099935  0.45282125    -0.03400
C1547       C  0.58684211  0.71238685  0.43800762    -0.16800
C1548       C  0.56505573  0.71307121  0.45242630    -0.14800
H1549       H  0.53405644  0.71351574  0.49234977     0.20500
H1550       H  0.63068697  0.70961396  0.50337486     0.16600
H1551       H  0.61924267  0.70955003  0.54987706     0.19100
H1552       H  0.54511137  0.71377461  0.44631242     0.12400
C1553       C  0.82221946  0.35084357  0.62774278     0.16300
C1554       C  0.84523129  0.33806073  0.62046120    -0.32700
C1555       C  0.85226325  0.31488202  0.63220211     0.20700
C1556       C  0.83723367  0.30539675  0.65055228     0.02900
C1557       C  0.81470873  0.31827184  0.65796040    -0.22500
C1558       C  0.80743600  0.34087006  0.64600994     0.12100
S1559       S  0.80844436  0.37772966  0.61470011    -0.06100
C1560       C  0.78235171  0.37474037  0.63376488    -0.09600
C1561       C  0.78482433  0.35440097  0.64953252    -0.26200
S1562       S  0.84702246  0.27618566  0.66138434    -0.03400
C1563       C  0.87176075  0.27609581  0.64097575    -0.16800
C1564       C  0.87248479  0.29812749  0.62671438    -0.14800
H1565       H  0.85651558  0.34525434  0.60579057     0.20500
H1566       H  0.80267958  0.31033801  0.67185155     0.16600
H1567       H  0.77014534  0.34901576  0.66233298     0.19100
H1568       H  0.88586598  0.30087806  0.61224454     0.12400
C1569       C  0.65855851  0.54474811  0.61476140     0.16300
C1570       C  0.65624516  0.57142972  0.60963553    -0.32700
C1571       C  0.63344269  0.58429025  0.61704298     0.20700
C1572       C  0.61389543  0.57113055  0.62900234     0.02900
C1573       C  0.61586336  0.54440955  0.63347615    -0.22500
C1574       C  0.63856886  0.53162240  0.62611056     0.12100
S1575       S  0.68558867  0.52596176  0.60947413    -0.06100
C1576       C  0.66952319  0.50018615  0.62246276    -0.09600
C1577       C  0.64456130  0.50607536  0.63019667    -0.26200
S1578       S  0.58912473  0.59046777  0.63877402    -0.03400
C1579       C  0.60487991  0.61665520  0.62628533    -0.16800
C1580       C  0.62814406  0.61045427  0.61508738    -0.14800
H1581       H  0.67186954  0.58187733  0.60096862     0.20500
H1582       H  0.60071904  0.53418397  0.64302127     0.16600
H1583       H  0.63188146  0.49263766  0.63942109     0.19100
H1584       H  0.64117907  0.62454109  0.60716758     0.12400
C1585       C  0.54824201  0.33511661  0.60340974     0.16300
C1586       C  0.57546706  0.33575088  0.60034719    -0.32700
C1587       C  0.58858846  0.35897557  0.60593440     0.20700
C1588       C  0.57507814  0.38066104  0.61379473     0.02900
C1589       C  0.54788675  0.38034067  0.61593667    -0.22500
C1590       C  0.53489982  0.35706781  0.61081508     0.12100
S1591       S  0.52906849  0.30787464  0.60125860    -0.06100
C1592       C  0.50293604  0.32631267  0.61062867    -0.09600
C1593       C  0.50897164  0.35227335  0.61453265    -0.26200
S1594       S  0.59441576  0.40568688  0.62277344    -0.03400
C1595       C  0.62115471  0.38699979  0.61574468    -0.16800
C1596       C  0.61516755  0.36270262  0.60660122    -0.14800
H1597       H  0.58608772  0.31850726  0.59512435     0.20500
H1598       H  0.53743532  0.39706322  0.62263298     0.16600
H1599       H  0.49546654  0.36654531  0.62145536     0.19100
H1600       H  0.62944380  0.34791351  0.60235417     0.12400
C1601       C  0.82152064  0.34264146  0.36466200     0.16300
C1602       C  0.84553134  0.33102607  0.37074693    -0.32700
C1603       C  0.85076494  0.30574001  0.36230628     0.20700
C1604       C  0.83295887  0.29296122  0.34821554     0.02900
C1605       C  0.80925905  0.30457970  0.34202386    -0.22500
C1606       C  0.80391000  0.32949696  0.35068713     0.12100
S1607       S  0.81030926  0.37238711  0.37413224    -0.06100
C1608       C  0.78151990  0.36670524  0.35933168    -0.09600
C1609       C  0.78117254  0.34308761  0.34757355    -0.26200
S1610       S  0.84170124  0.26210451  0.34074247    -0.03400
C1611       C  0.86975088  0.26583842  0.35693123    -0.16800
C1612       C  0.87214675  0.29025670  0.36728864    -0.14800
H1613       H  0.85917610  0.34094697  0.38203421     0.20500
H1614       H  0.79520665  0.29428551  0.33140399     0.16600
H1615       H  0.76469178  0.33578004  0.33777486     0.19100
H1616       H  0.88798388  0.29592208  0.37865670     0.12400
C1617       C  0.66661196  0.54410296  0.38368903     0.16300
C1618       C  0.66493885  0.57112223  0.38733514    -0.32700
C1619       C  0.64061236  0.58318280  0.38369564     0.20700
C1620       C  0.61898255  0.56890758  0.37693067     0.02900
C1621       C  0.62048048  0.54194823  0.37401982    -0.22500
C1622       C  0.64471512  0.53001294  0.37740529     0.12100
S1623       S  0.69469954  0.52593013  0.38453836    -0.06100
C1624       C  0.67653630  0.49920086  0.37637131    -0.09600
C1625       C  0.65020233  0.50438172  0.37350789    -0.26200
S1626       S  0.59216726  0.58713535  0.37044255    -0.03400
C1627       C  0.61001554  0.61444990  0.37706219    -0.16800
C1628       C  0.63540050  0.60943823  0.38423123    -0.14800
H1629       H  0.68202780  0.58238232  0.39182411     0.20500
H1630       H  0.60371189  0.53088031  0.36831000     0.16600
H1631       H  0.63589775  0.49032507  0.36768951     0.19100
H1632       H  0.64978333  0.62428727  0.38788478     0.12400
C1633       C  0.57603677  0.38187603  0.37504570     0.16300
C1634       C  0.54907587  0.38090120  0.37161729    -0.32700
C1635       C  0.53610311  0.35791598  0.37781710     0.20700
C1636       C  0.54923292  0.33674956  0.38715753     0.02900
C1637       C  0.57617717  0.33808043  0.39142086    -0.22500
C1638       C  0.58925838  0.36111794  0.38505664     0.12100
S1639       S  0.59557048  0.40661984  0.36559824    -0.06100
C1640       C  0.62195980  0.38909846  0.37547697    -0.09600
C1641       C  0.61569503  0.36540964  0.38578406    -0.26200
S1642       S  0.53016560  0.30958050  0.39065945    -0.03400
C1643       C  0.50429242  0.32720462  0.37967443    -0.16800
C1644       C  0.51037257  0.35271676  0.37392051    -0.14800
H1645       H  0.53882368  0.39692886  0.36344338     0.20500
H1646       H  0.58666346  0.32151485  0.39837217     0.16600
H1647       H  0.62983882  0.35131115  0.39186070     0.19100
H1648       H  0.49698904  0.36635244  0.36588339     0.12400
C1649       C  0.71852875  0.39676475  0.47753560     0.16300
C1650       C  0.71780005  0.38568648  0.49997236    -0.32700
C1651       C  0.71870106  0.40260202  0.51916938     0.20700
C1652       C  0.72014302  0.42935177  0.51615210     0.02900
C1653       C  0.72081316  0.44042522  0.49373330    -0.22500
C1654       C  0.72004983  0.42351223  0.47455309     0.12100
S1655       S  0.71782600  0.37961151  0.45201919    -0.06100
C1656       C  0.71987363  0.40877360  0.43715915    -0.09600
C1657       C  0.72079433  0.43053834  0.45141532    -0.26200
S1658       S  0.72090154  0.44657223  0.54159355    -0.03400
C1659       C  0.71923282  0.41744564  0.55653711    -0.16800
C1660       C  0.71820773  0.39562305  0.54234672    -0.14800
H1661       H  0.71664278  0.36480997  0.50235746     0.20500
H1662       H  0.72195691  0.46129671  0.49134847     0.16600
H1663       H  0.72193407  0.45042515  0.44519025     0.19100
H1664       H  0.71698809  0.37575976  0.54863834     0.12400
C1665       C  0.17604888  0.34258801  0.86814522     0.16300
C1666       C  0.15270554  0.33070043  0.87573141    -0.32700
C1667       C  0.14597991  0.30652038  0.86579869     0.20700
C1668       C  0.16163103  0.29517355  0.84881069     0.02900
C1669       C  0.18455121  0.30713500  0.84106889    -0.22500
C1670       C  0.19149096  0.33080780  0.85128653     0.12100
S1671       S  0.18920864  0.37076429  0.87913006    -0.06100
C1672       C  0.21589474  0.36605598  0.86109682    -0.09600
C1673       C  0.21414229  0.34407909  0.84719215    -0.26200
S1674       S  0.15182692  0.26519776  0.84005216    -0.03400
C1675       C  0.12637335  0.26730623  0.85969248    -0.16800
C1676       C  0.12533605  0.29061951  0.87199426    -0.14800
H1677       H  0.14086202  0.33941262  0.88930256     0.20500
H1678       H  0.19700962  0.29785029  0.82823898     0.16600
H1679       H  0.22920554  0.33757120  0.83522853     0.19100
H1680       H  0.11127691  0.29501436  0.88557338     0.12400
C1681       C  0.25443408  0.46344937  0.75373505     0.16300
C1682       C  0.25715768  0.46480547  0.72931744    -0.32700
C1683       C  0.25305754  0.48898262  0.71843547     0.20700
C1684       C  0.24575931  0.51072126  0.73118641     0.02900
C1685       C  0.24285198  0.50931493  0.75563953    -0.22500
C1686       C  0.24769539  0.48527430  0.76663118     0.12100
S1687       S  0.26214024  0.43686737  0.77032344    -0.06100
C1688       C  0.25656202  0.45527192  0.79497816    -0.09600
C1689       C  0.24893793  0.48069038  0.79036898    -0.26200
S1690       S  0.24408811  0.53873671  0.71493483    -0.03400
C1691       C  0.25382940  0.52110942  0.69083282    -0.16800
C1692       C  0.25786128  0.49486849  0.69535812    -0.14800
H1693       H  0.26354726  0.44805233  0.71937247     0.20500
H1694       H  0.23831220  0.52651306  0.76576633     0.16600
H1695       H  0.24648650  0.49553349  0.80360618     0.19100
H1696       H  0.26572719  0.48120589  0.68277381     0.12400
C1697       C  0.36212493  0.31801658  0.73875897     0.16300
C1698       C  0.35869407  0.31976155  0.76302512    -0.32700
C1699       C  0.33733191  0.33413798  0.77121927     0.20700
C1700       C  0.31988593  0.34578780  0.75591372     0.02900
C1701       C  0.32268576  0.34307875  0.73168987    -0.22500
C1702       C  0.34434365  0.32922276  0.72350932     0.12100
S1703       S  0.38889521  0.30504050  0.72541684    -0.06100
C1704       C  0.37600086  0.31498908  0.69908975    -0.09600
C1705       C  0.35197400  0.32709353  0.70065084    -0.26200
S1706       S  0.29791422  0.36594915  0.76895892    -0.03400
C1707       C  0.31235052  0.35861909  0.79530352    -0.16800
C1708       C  0.33270577  0.34099930  0.79400014    -0.14800
H1709       H  0.37292346  0.31168192  0.77495768     0.20500
H1710       H  0.30952387  0.35278568  0.71972708     0.16600
H1711       H  0.34146869  0.33535049  0.68598485     0.19100
H1712       H  0.34506216  0.33562274  0.80855804     0.12400
C1713       C  0.19204926  0.33104528  0.15284272     0.16300
C1714       C  0.17884574  0.30937185  0.16177181    -0.32700
C1715       C  0.15616444  0.30141397  0.15030885     0.20700
C1716       C  0.14637543  0.31492029  0.13123578     0.02900
C1717       C  0.15931504  0.33713651  0.12259168    -0.22500
C1718       C  0.18261308  0.34465977  0.13366098     0.12100
S1719       S  0.22176897  0.34106074  0.16238873    -0.06100
C1720       C  0.22201646  0.36370688  0.14013129    -0.09600
C1721       C  0.19966588  0.36382747  0.12644133    -0.26200
S1722       S  0.11987185  0.30033029  0.11857837    -0.03400
C1723       C  0.12271171  0.27549126  0.13880212    -0.16800
C1724       C  0.14267156  0.27898071  0.15475793    -0.14800
H1725       H  0.18674802  0.29827552  0.17623737     0.20500
H1726       H  0.15231252  0.34723970  0.10721256     0.16600
H1727       H  0.19688786  0.37595254  0.11113849     0.19100
H1728       H  0.14806216  0.26495636  0.16808000     0.12400
C1729       C  0.28469656  0.38916162  0.01527355     0.16300
C1730       C  0.28762302  0.37856128  0.99277152    -0.32700
C1731       C  0.28354741  0.39512276  0.97350939     0.20700
C1732       C  0.27693413  0.42105957  0.97657227     0.02900
C1733       C  0.27404537  0.43162781  0.99901735    -0.22500
C1734       C  0.27810413  0.41511442  0.01822799     0.12100
S1735       S  0.28883347  0.37247595  0.04093483    -0.06100
C1736       C  0.28175892  0.40083500  0.05577559    -0.09600
C1737       C  0.27644569  0.42193073  0.04137702    -0.26200
S1738       S  0.27295315  0.43804150  0.95114372    -0.03400
C1739       C  0.28013056  0.40993277  0.93603291    -0.16800
C1740       C  0.28537429  0.38858071  0.95023139    -0.14800
H1741       H  0.29284933  0.35833376  0.99038897     0.20500
H1742       H  0.26891246  0.45188700  0.00140318     0.16600
H1743       H  0.27175190  0.44129864  0.04752177     0.19100
H1744       H  0.29035175  0.36937927  0.94387874     0.12400
C1745       C  0.26132352  0.46443863  0.23577483     0.16300
C1746       C  0.26226099  0.46600050  0.26027314    -0.32700
C1747       C  0.25928990  0.49062776  0.27053119     0.20700
C1748       C  0.25480698  0.51264067  0.25704812     0.02900
C1749       C  0.25370047  0.51104819  0.23254174    -0.22500
C1750       C  0.25740381  0.48652945  0.22223686     0.12100
S1751       S  0.26768129  0.43695753  0.21998003    -0.06100
C1752       C  0.26531697  0.45540701  0.19489180    -0.09600
C1753       C  0.25979705  0.48146071  0.19871344    -0.26200
S1754       S  0.25414112  0.54100044  0.27264737    -0.03400
C1755       C  0.26044249  0.52312366  0.29751606    -0.16800
C1756       C  0.26267172  0.49656305  0.29374632    -0.14800
H1757       H  0.26640503  0.44895975  0.27081075     0.20500
H1758       H  0.25131542  0.52836245  0.22192497     0.16600
H1759       H  0.25924167  0.49616656  0.18511714     0.19100
H1760       H  0.26834787  0.48259854  0.30701386     0.12400
C1761       C  0.34491151  0.33192623  0.22386567     0.16300
C1762       C  0.36193737  0.31750632  0.23789564    -0.32700
C1763       C  0.36010962  0.32087678  0.26214292     0.20700
C1764       C  0.34118963  0.33670409  0.27211147     0.02900
C1765       C  0.32391145  0.35084458  0.25809166    -0.22500
C1766       C  0.32673601  0.34862572  0.23379802     0.12100
S1767       S  0.34658446  0.33339374  0.19409688    -0.06100
C1768       C  0.32359909  0.35772237  0.19518829    -0.09600
C1769       C  0.31446426  0.36358018  0.21736813    -0.26200
S1770       S  0.34316630  0.33940302  0.30178106    -0.03400
C1771       C  0.37054089  0.32013219  0.30051175    -0.16800
C1772       C  0.37711695  0.31137301  0.27840504    -0.14800
H1773       H  0.37701847  0.30543493  0.23019293     0.20500
H1774       H  0.30996632  0.36420585  0.26575060     0.16600
H1775       H  0.30067335  0.37892767  0.22132323     0.19100
H1776       H  0.39404938  0.29955293  0.27436618     0.12400
C1777       C  0.66171573  0.19019559  0.84363933     0.16300
C1778       C  0.68420475  0.17729914  0.83598266    -0.32700
C1779       C  0.69183036  0.15487523  0.84813656     0.20700
C1780       C  0.67729616  0.14511769  0.86667249     0.02900
C1781       C  0.65442751  0.15783175  0.87411621    -0.22500
C1782       C  0.64714020  0.18077930  0.86231626     0.12100
S1783       S  0.65145808  0.21940444  0.83298107    -0.06100
C1784       C  0.62739168  0.21941204  0.85407587    -0.09600
C1785       C  0.62706526  0.19738398  0.86822564    -0.26200
S1786       S  0.69098475  0.11844635  0.87990872    -0.03400
C1787       C  0.71679451  0.12101775  0.86061572    -0.16800
C1788       C  0.71442862  0.14121415  0.84462626    -0.14800
H1789       H  0.69594470  0.18510706  0.82183626     0.20500
H1790       H  0.64344298  0.15077323  0.88902296     0.16600
H1791       H  0.61406540  0.19454409  0.88296313     0.19100
H1792       H  0.72901556  0.14624219  0.83162547     0.12400
C1793       C  0.66435870  0.33354360  0.72292327     0.16300
C1794       C  0.64863577  0.31712063  0.73651361    -0.32700
C1795       C  0.64854523  0.32102759  0.76077093     0.20700
C1796       C  0.66445926  0.33946021  0.77120180     0.02900
C1797       C  0.68048517  0.35559889  0.75765429    -0.22500
C1798       C  0.67951584  0.35260920  0.73332175     0.12100
S1799       S  0.66409053  0.33465672  0.69306888    -0.06100
C1800       C  0.68347299  0.36188166  0.69474040    -0.09600
C1801       C  0.69060646  0.36891528  0.71721164    -0.26200
S1802       S  0.66019519  0.34248420  0.80067159    -0.03400
C1803       C  0.63587610  0.31960208  0.79868797    -0.16800
C1804       C  0.63197667  0.30960045  0.77651150    -0.14800
H1805       H  0.63579629  0.30308088  0.72843597     0.20500
H1806       H  0.69189916  0.37085045  0.76559836     0.16600
H1807       H  0.70177181  0.38593102  0.72155098     0.19100
H1808       H  0.61698483  0.29567316  0.77199914     0.12400
C1809       C  0.50821195  0.24853135  0.76321868     0.16300
C1810       C  0.48794065  0.24292120  0.74749558    -0.32700
C1811       C  0.49118539  0.25074864  0.72404946     0.20700
C1812       C  0.51396930  0.26275456  0.71655664     0.02900
C1813       C  0.53442712  0.26760962  0.73205748    -0.22500
C1814       C  0.53079202  0.26074639  0.75554879     0.12100
S1815       S  0.50646563  0.24474513  0.79298167    -0.06100
C1816       C  0.53612389  0.26028349  0.79492878    -0.09600
C1817       C  0.54682180  0.26748940  0.77363696    -0.26200
S1818       S  0.51295889  0.27431891  0.68865774    -0.03400
C1819       C  0.48137435  0.26329833  0.68695329    -0.16800
C1820       C  0.47237896  0.25065129  0.70689147    -0.14800
H1821       H  0.46988111  0.23450626  0.75354293     0.20500
H1822       H  0.55168967  0.27801596  0.72637813     0.16600
H1823       H  0.56455414  0.27876574  0.77164928     0.19100
H1824       H  0.45259549  0.24415866  0.70945900     0.12400
C1825       C  0.45021715  0.33044535  0.87796575     0.16300
C1826       C  0.42309324  0.33050261  0.88149871    -0.32700
C1827       C  0.40967255  0.35400679  0.87774224     0.20700
C1828       C  0.42272985  0.37642052  0.87090478     0.02900
C1829       C  0.44983915  0.37654014  0.86810190    -0.22500
C1830       C  0.46317336  0.35307494  0.87164731     0.12100
S1831       S  0.46985327  0.30350135  0.87912942    -0.06100
C1832       C  0.49572063  0.32304499  0.87105110    -0.09600
C1833       C  0.48922526  0.34902409  0.86796190    -0.26200
S1834       S  0.40290797  0.40206166  0.86435516    -0.03400
C1835       C  0.37667817  0.38261898  0.87121573    -0.16800
C1836       C  0.38313369  0.35761282  0.87836373    -0.14800
H1837       H  0.41278979  0.31280592  0.88605093     0.20500
H1838       H  0.45998695  0.39392497  0.86240351     0.16600
H1839       H  0.50266165  0.36401021  0.86221274     0.19100
H1840       H  0.36911120  0.34241822  0.88217502     0.12400
C1841       C  0.68056204  0.14430921  0.12921978     0.16300
C1842       C  0.65780359  0.15686614  0.12111636    -0.32700
C1843       C  0.65056044  0.18054670  0.13180520     0.20700
C1844       C  0.66509489  0.19069328  0.15005212     0.02900
C1845       C  0.68743695  0.17805099  0.15827951    -0.22500
C1846       C  0.69499864  0.15495107  0.14726772     0.12100
S1847       S  0.69438353  0.11682331  0.11740386    -0.06100
C1848       C  0.72009633  0.12030398  0.13663462    -0.09600
C1849       C  0.71750588  0.14138896  0.15155350    -0.26200
S1850       S  0.65505785  0.22039899  0.15952495    -0.03400
C1851       C  0.63110535  0.21990753  0.13846443    -0.16800
C1852       C  0.63066234  0.19720953  0.12517916    -0.14800
H1853       H  0.64688970  0.14910862  0.10655480     0.20500
H1854       H  0.69912728  0.18651705  0.17203859     0.16600
H1855       H  0.73197333  0.14719225  0.16428296     0.19100
H1856       H  0.61778465  0.19390565  0.11053020     0.12400
C1857       C  0.46935991  0.36146823  0.11893992     0.16300
C1858       C  0.45050011  0.38081827  0.12224130    -0.32700
C1859       C  0.42466823  0.37474964  0.11666923     0.20700
C1860       C  0.41794524  0.35075461  0.10744047     0.02900
C1861       C  0.43690431  0.33131906  0.10410370    -0.22500
C1862       C  0.46272358  0.33710862  0.11043432     0.12100
S1863       S  0.50126699  0.36468136  0.12634126    -0.06100
C1864       C  0.50589998  0.33257915  0.11861865    -0.09600
C1865       C  0.48367623  0.32029420  0.11031346    -0.26200
S1866       S  0.38520844  0.34696968  0.10291393    -0.03400
C1867       C  0.38058533  0.37762683  0.11442747    -0.16800
C1868       C  0.40335905  0.39016353  0.12080485    -0.14800
H1869       H  0.45561001  0.39949946  0.12965212     0.20500
H1870       H  0.43160394  0.31225548  0.09766685     0.16600
H1871       H  0.48272038  0.30006195  0.10516934     0.19100
H1872       H  0.40416176  0.40909056  0.12906554     0.12400
C1873       C  0.60509113  0.27610358  0.01430325     0.16300
C1874       C  0.61573530  0.27732855  0.99167077    -0.32700
C1875       C  0.59856108  0.27516327  0.97270176     0.20700
C1876       C  0.57204925  0.27142973  0.97612561     0.02900
C1877       C  0.56146811  0.26984660  0.99874238    -0.22500
C1878       C  0.57855107  0.27255343  0.01769663     0.12100
S1879       S  0.62236012  0.27992162  0.03956897    -0.06100
C1880       C  0.59346082  0.27714756  0.05489211    -0.09600
C1881       C  0.57176250  0.27307264  0.04094274    -0.26200
S1882       S  0.55432433  0.27035252  0.95092133    -0.03400
C1883       C  0.58286061  0.27531655  0.93552316    -0.16800
C1884       C  0.60491662  0.27728901  0.94941145    -0.14800
H1885       H  0.63638607  0.28051158  0.98896855     0.20500
H1886       H  0.54072218  0.26732591  0.00144101     0.16600
H1887       H  0.55199864  0.27111289  0.04742869     0.19100
H1888       H  0.62445173  0.28068828  0.94285821     0.12400
C1889       C  0.66828408  0.34117625  0.22081323     0.16300
C1890       C  0.68365800  0.35756346  0.23454076    -0.32700
C1891       C  0.68043169  0.35603540  0.25883333     0.20700
C1892       C  0.66352295  0.33823137  0.26908037     0.02900
C1893       C  0.64831874  0.32172501  0.25537694    -0.22500
C1894       C  0.65074081  0.32401981  0.23108799     0.12100
S1895       S  0.66692230  0.34231416  0.19103256    -0.06100
C1896       C  0.64170313  0.32035604  0.19265362    -0.09600
C1897       C  0.63539666  0.31201066  0.21497060    -0.26200
S1898       S  0.66135823  0.34028505  0.29873370    -0.03400
C1899       C  0.68265028  0.36604807  0.29716465    -0.16800
C1900       C  0.69142250  0.37220842  0.27493446    -0.14800
H1901       H  0.69655563  0.37176289  0.22662219     0.20500
H1902       H  0.63427774  0.30860473  0.26326866     0.16600
H1903       H  0.61942489  0.29902018  0.21923165     0.19100
H1904       H  0.70431388  0.38823891  0.27074089     0.12400
C1905       C  0.51178343  0.25460946  0.22737820     0.16300
C1906       C  0.49206649  0.24722670  0.24333352    -0.32700
C1907       C  0.49331824  0.25727064  0.26625488     0.20700
C1908       C  0.51376671  0.27323272  0.27297293     0.02900
C1909       C  0.53359133  0.28008908  0.25729815    -0.22500
C1910       C  0.53185364  0.27085188  0.23436984     0.12100
S1911       S  0.51236320  0.24755880  0.19798849    -0.06100
C1912       C  0.53946907  0.26724000  0.19531616    -0.09600
C1913       C  0.54762542  0.27814603  0.21615549    -0.26200
S1914       S  0.51072317  0.28606838  0.30020898    -0.03400
C1915       C  0.48126093  0.27032681  0.30281463    -0.16800
C1916       C  0.47456896  0.25520924  0.28359919    -0.14800
H1917       H  0.47579183  0.23538104  0.23779414     0.20500
H1918       H  0.54894174  0.29335294  0.26240303     0.16600
H1919       H  0.56353394  0.29189869  0.21765097     0.19100
H1920       H  0.45617397  0.24515526  0.28165853     0.12400
C1921       C  0.81802514  0.64335875  0.86613861     0.16300
C1922       C  0.84106865  0.65556300  0.87387673    -0.32700
C1923       C  0.84841538  0.67913402  0.86295394     0.20700
C1924       C  0.83370700  0.68956975  0.84489572     0.02900
C1925       C  0.81126409  0.67713498  0.83686960    -0.22500
C1926       C  0.80366280  0.65412478  0.84804834     0.12100
S1927       S  0.80357962  0.61646308  0.87862113    -0.06100
C1928       C  0.77780761  0.62045450  0.85952843    -0.09600
C1929       C  0.78093507  0.64105796  0.84409611    -0.26200
S1930       S  0.84385510  0.71920783  0.83522226    -0.03400
C1931       C  0.86832707  0.71807174  0.85572796    -0.16800
C1932       C  0.86870207  0.69538285  0.86910872    -0.14800
H1933       H  0.85206363  0.64771392  0.88838281     0.20500
H1934       H  0.79948343  0.68573318  0.82319673     0.16600
H1935       H  0.76649912  0.64714197  0.83140920     0.19100
H1936       H  0.88206040  0.69169058  0.88334200     0.12400
C1937       C  0.67885561  0.64533076  0.75471138     0.16300
C1938       C  0.67548220  0.64789252  0.73053293    -0.32700
C1939       C  0.65741342  0.66636261  0.72270803     0.20700
C1940       C  0.64390376  0.68218178  0.73821817     0.02900
C1941       C  0.64842275  0.68065837  0.76233030    -0.22500
C1942       C  0.66585049  0.66157854  0.77021027     0.12100
S1943       S  0.69525982  0.62035756  0.76768462    -0.06100
C1944       C  0.68427216  0.63178462  0.79422565    -0.09600
C1945       C  0.66948601  0.65427860  0.79301549    -0.26200
S1946       S  0.61951816  0.69992925  0.72571921    -0.03400
C1947       C  0.62765163  0.68582337  0.69939465    -0.16800
C1948       C  0.64856658  0.66886484  0.70026591    -0.14800
H1949       H  0.68490344  0.63464135  0.71847009     0.20500
H1950       H  0.63726645  0.69234252  0.77452155     0.16600
H1951       H  0.65978980  0.66324294  0.80780815     0.19100
H1952       H  0.65534206  0.65723257  0.68568392     0.12400
C1953       C  0.74386683  0.51429281  0.76312103     0.16300
C1954       C  0.75007285  0.51221412  0.73918982    -0.32700
C1955       C  0.74383533  0.48880543  0.72776804     0.20700
C1956       C  0.73277366  0.46814887  0.73991035     0.02900
C1957       C  0.72690698  0.47010239  0.76379342    -0.22500
C1958       C  0.73220693  0.49374839  0.77494274     0.12100
S1959       S  0.74661120  0.54205912  0.77947908    -0.06100
C1960       C  0.73118105  0.52596575  0.80210217    -0.09600
C1961       C  0.72476381  0.50038678  0.79720641    -0.26200
S1962       S  0.72387116  0.44259890  0.72279194    -0.03400
C1963       C  0.73468157  0.45984751  0.69882434    -0.16800
C1964       C  0.74503191  0.48410712  0.70404195    -0.14800
H1965       H  0.75805061  0.52860664  0.72962322     0.20500
H1966       H  0.71717090  0.45437933  0.77296438     0.16600
H1967       H  0.71382769  0.48779665  0.80887742     0.19100
H1968       H  0.75094790  0.49834538  0.69107368     0.12400
C1969       C  0.63770060  0.41395010  0.88465799     0.16300
C1970       C  0.65750374  0.43237955  0.88826925    -0.32700
C1971       C  0.65210298  0.45845635  0.88266624     0.20700
C1972       C  0.62772542  0.46591987  0.87465094     0.02900
C1973       C  0.60792404  0.44753688  0.87110189    -0.22500
C1974       C  0.61365498  0.42136260  0.87584791     0.12100
S1975       S  0.64114796  0.38111614  0.88837389    -0.06100
C1976       C  0.61024761  0.37723145  0.87715068    -0.09600
C1977       C  0.59790742  0.40036189  0.87128966    -0.26200
S1978       S  0.62533249  0.49809970  0.86770159    -0.03400
C1979       C  0.65783702  0.50153409  0.87476693    -0.16800
C1980       C  0.66952440  0.47883970  0.88276771    -0.14800
H1981       H  0.67661399  0.42648567  0.89427322     0.20500
H1982       H  0.58922854  0.45325610  0.86400580     0.16600
H1983       H  0.57885492  0.40165576  0.86326369     0.19100
H1984       H  0.68991197  0.47706592  0.88734543     0.12400
C1985       C  0.80875286  0.66683493  0.14602387     0.16300
C1986       C  0.82079934  0.68997661  0.15282797    -0.32700
C1987       C  0.84542256  0.69555678  0.14354049     0.20700
C1988       C  0.85792373  0.67877550  0.12825718     0.02900
C1989       C  0.84589439  0.65518965  0.12158556    -0.22500
C1990       C  0.82086199  0.64966555  0.13078503     0.12100
S1991       S  0.77809418  0.65816280  0.15427129    -0.06100
C1992       C  0.78097808  0.63084221  0.13707189    -0.09600
C1993       C  0.80497461  0.62864441  0.12567041    -0.26200
S1994       S  0.88724412  0.69063863  0.11799368    -0.03400
C1995       C  0.88209301  0.71851074  0.13429315    -0.16800
C1996       C  0.85910178  0.71800909  0.14713423    -0.14800
H1997       H  0.81100381  0.70350104  0.16438995     0.20500
H1998       H  0.85525727  0.64215327  0.10934060     0.16600
H1999       H  0.81002252  0.61326933  0.11358263     0.19100
H2000       H  0.85209719  0.73389199  0.15788830     0.12400
C2001       C  0.62552745  0.42499855  0.11251332     0.16300
C2002       C  0.62537503  0.45204226  0.11536667    -0.32700
C2003       C  0.64935510  0.46504475  0.11446893     0.20700
C2004       C  0.67251719  0.45186138  0.11048492     0.02900
C2005       C  0.67258303  0.42481260  0.10688850    -0.22500
C2006       C  0.64855958  0.41168120  0.10816263     0.12100
S2007       S  0.59904152  0.40550895  0.11677460    -0.06100
C2008       C  0.61902101  0.37901725  0.11255890    -0.09600
C2009       C  0.64483413  0.38517763  0.10774365    -0.26200
S2010       S  0.69972960  0.47107583  0.11229660    -0.03400
C2011       C  0.67959745  0.49705248  0.11853668    -0.16800
C2012       C  0.65326024  0.49091612  0.11884013    -0.14800
H2013       H  0.60748293  0.46234337  0.11931357     0.20500
H2014       H  0.69065851  0.41432078  0.10431948     0.16600
H2015       H  0.66038524  0.37103216  0.10617861     0.19100
H2016       H  0.63778029  0.50447377  0.12306362     0.12400
C2017       C  0.71897471  0.60113417  0.97710461     0.16300
C2018       C  0.72135005  0.61256290  0.99926477    -0.32700
C2019       C  0.72288491  0.59591758  0.01872533     0.20700
C2020       C  0.72242876  0.56909022  0.01619826     0.02900
C2021       C  0.72019095  0.55766943  0.99405019    -0.22500
C2022       C  0.71832124  0.57430957  0.97464083     0.12100
S2023       S  0.71620165  0.61789728  0.95136762    -0.06100
C2024       C  0.71390290  0.58844654  0.93714041    -0.09600
C2025       C  0.71542239  0.56691215  0.95176940    -0.26200
S2026       S  0.72384650  0.55226679  0.04193843    -0.03400
C2027       C  0.72476002  0.58167548  0.05637344    -0.16800
C2028       C  0.72422585  0.60327616  0.04176739    -0.14800
H2029       H  0.72161794  0.63349558  0.00127663     0.20500
H2030       H  0.71955547  0.53673398  0.99206579     0.16600
H2031       H  0.71444246  0.54688701  0.94598041     0.19100
H2032       H  0.72426159  0.62326363  0.04770183     0.12400
C2033       C  0.65107248  0.65857607  0.21963747     0.16300
C2034       C  0.63267877  0.67143216  0.23361801    -0.32700
C2035       C  0.63602121  0.67026503  0.25794487     0.20700
C2036       C  0.65715197  0.65760826  0.26791932     0.02900
C2037       C  0.67551400  0.64477028  0.25396170    -0.22500
C2038       C  0.67172206  0.64523695  0.22970755     0.12100
S2039       S  0.64919835  0.65553249  0.18991869    -0.06100
C2040       C  0.67592823  0.63536118  0.19130750    -0.09600
C2041       C  0.68596233  0.63177689  0.21353031    -0.26200
S2042       S  0.65723228  0.65757074  0.29776801    -0.03400
C2043       C  0.62801102  0.67396831  0.29679877    -0.16800
C2044       C  0.61914370  0.67963305  0.27447899    -0.14800
H2045       H  0.61598078  0.68105562  0.22593411     0.20500
H2046       H  0.69149525  0.63405779  0.26170810     0.16600
H2047       H  0.70198586  0.61887167  0.21773969     0.19100
H2048       H  0.60091964  0.68934287  0.27058043     0.12400
C2049       C  0.75275200  0.48591724  0.26307473     0.16300
C2050       C  0.75909470  0.48998606  0.23931662    -0.32700
C2051       C  0.74899838  0.51236710  0.22821830     0.20700
C2052       C  0.73381284  0.53008738  0.24045925     0.02900
C2053       C  0.72805665  0.52636084  0.26416975    -0.22500
C2054       C  0.73753854  0.50382016  0.27501040     0.12100
S2055       S  0.75958162  0.45833102  0.27906688    -0.06100
C2056       C  0.74125272  0.47105198  0.30170252    -0.09600
C2057       C  0.73109437  0.49550119  0.29702215    -0.26200
S2058       S  0.72061105  0.55415266  0.22369423    -0.03400
C2059       C  0.73561441  0.54048535  0.19973605    -0.16800
C2060       C  0.75029947  0.51841939  0.20469243    -0.14800
H2061       H  0.77017857  0.47567084  0.22960481     0.20500
H2062       H  0.71541605  0.53973785  0.27344951     0.16600
H2063       H  0.71794831  0.50586014  0.30859770     0.19100
H2064       H  0.75964622  0.50638673  0.19159765     0.12400
C2065       C  0.34104813  0.81222495  0.84129380     0.16300
C2066       C  0.32072020  0.82737668  0.83215071    -0.32700
C2067       C  0.31197354  0.84857244  0.84544667     0.20700
C2068       C  0.32352411  0.85491270  0.86658218     0.02900
C2069       C  0.34451191  0.84027041  0.87533119    -0.22500
C2070       C  0.35275655  0.81854829  0.86237507     0.12100
S2071       S  0.35105087  0.78330237  0.82983096    -0.06100
C2072       C  0.37102233  0.77933406  0.85379648    -0.09600
C2073       C  0.37041054  0.79991741  0.86945523    -0.26200
S2074       S  0.30761978  0.87886532  0.88168064    -0.03400
C2075       C  0.28521933  0.88033630  0.85933571    -0.16800
C2076       C  0.29008590  0.86320936  0.84114452    -0.14800
H2077       H  0.31097503  0.82183261  0.81614113     0.20500
H2078       H  0.35287702  0.84458702  0.89224559     0.16600
H2079       H  0.38058447  0.80018856  0.88601753     0.19100
H2080       H  0.27701687  0.86004136  0.82658015     0.12400
C2081       C  0.51541213  0.74627816  0.73561926     0.16300
C2082       C  0.51367556  0.74687249  0.76014639    -0.32700
C2083       C  0.48898934  0.74320977  0.77035855     0.20700
C2084       C  0.46689982  0.74004540  0.75671170     0.02900
C2085       C  0.46855333  0.74008637  0.73224237    -0.22500
C2086       C  0.49331224  0.74278642  0.72207843     0.12100
S2087       S  0.54395016  0.74556694  0.72005444    -0.06100
C2088       C  0.52592346  0.74005788  0.69518611    -0.09600
C2089       C  0.49924692  0.73925795  0.69890363    -0.26200
S2090       S  0.43933932  0.73269881  0.77214738    -0.03400
C2091       C  0.45770212  0.73365465  0.79724091    -0.16800
C2092       C  0.48377707  0.73959471  0.79375258    -0.14800
H2093       H  0.53101826  0.74838104  0.77081041     0.20500
H2094       H  0.45150526  0.73641481  0.72161901     0.16600
H2095       H  0.48513676  0.73393578  0.68569216     0.19100
H2096       H  0.49841543  0.73937368  0.80736165     0.12400
C2097       C  0.34268739  0.67694798  0.75506750     0.16300
C2098       C  0.34004037  0.67354816  0.73091837    -0.32700
C2099       C  0.32354787  0.65362465  0.72328927     0.20700
C2100       C  0.30972350  0.63819980  0.73895239     0.02900
C2101       C  0.31127057  0.64256128  0.76308629    -0.22500
C2102       C  0.32833832  0.66202313  0.77075899     0.12100
S2103       S  0.36586845  0.69598793  0.76769228    -0.06100
C2104       C  0.35624194  0.68356725  0.79434669    -0.09600
C2105       C  0.33556660  0.66632047  0.79345577    -0.26200
S2106       S  0.29407326  0.61247693  0.72641207    -0.03400
C2107       C  0.30624178  0.62276209  0.69984253    -0.16800
C2108       C  0.32115385  0.64516627  0.70075017    -0.14800
H2109       H  0.35181233  0.68461454  0.71866764     0.20500
H2110       H  0.30113432  0.63007613  0.77539079     0.16600
H2111       H  0.32814879  0.65547489  0.80831735     0.19100
H2112       H  0.33126331  0.65369887  0.68592516     0.12400
C2113       C  0.52717222  0.63302104  0.86905008     0.16300
C2114       C  0.54616390  0.61389801  0.86509741    -0.32700
C2115       C  0.57215836  0.62020943  0.86999829     0.20700
C2116       C  0.57891836  0.64419767  0.87921584     0.02900
C2117       C  0.55986368  0.66338788  0.88316918    -0.22500
C2118       C  0.53389386  0.65736070  0.87753111     0.12100
S2119       S  0.49497961  0.62968776  0.86240904    -0.06100
C2120       C  0.49043202  0.66174330  0.87032763    -0.09600
C2121       C  0.51284840  0.67400592  0.87827024    -0.26200
S2122       S  0.61171849  0.64812242  0.88342850    -0.03400
C2123       C  0.61635208  0.61747685  0.87191548    -0.16800
C2124       C  0.59353755  0.60492459  0.86557676    -0.14800
H2125       H  0.54099870  0.59519263  0.85776531     0.20500
H2126       H  0.56516281  0.68243317  0.88963784     0.16600
H2127       H  0.51390780  0.69423441  0.88340157     0.19100
H2128       H  0.59271406  0.58584704  0.85759406     0.12400
C2129       C  0.34609124  0.58177438  0.87977324     0.16300
C2130       C  0.32661997  0.56297619  0.88384224    -0.32700
C2131       C  0.33147652  0.53741642  0.87617045     0.20700
C2132       C  0.35498380  0.53093705  0.86561502     0.02900
C2133       C  0.37427621  0.54959730  0.86154820    -0.22500
C2134       C  0.36914197  0.57511052  0.86855104     0.12100
S2135       S  0.34352596  0.61426767  0.88597735    -0.06100
C2136       C  0.37334559  0.61877673  0.87249413    -0.09600
C2137       C  0.38473850  0.59616873  0.86427755    -0.26200
S2138       S  0.35746238  0.49940215  0.85720903    -0.03400
C2139       C  0.32619782  0.49457470  0.86740694    -0.16800
C2140       C  0.31461658  0.51651898  0.87709510    -0.14800
H2141       H  0.30827037  0.56819303  0.89198159     0.20500
H2142       H  0.39226059  0.54456927  0.85266675     0.16600
H2143       H  0.40303111  0.59534494  0.85478209     0.19100
H2144       H  0.29497327  0.51723307  0.88404464     0.12400
C2145       C  0.35839925  0.81504722  0.12778716     0.16300
C2146       C  0.34765994  0.83931473  0.12133891    -0.32700
C2147       C  0.32472335  0.84749956  0.13290449     0.20700
C2148       C  0.31353471  0.83235612  0.15036978     0.02900
C2149       C  0.32440169  0.80851297  0.15697650    -0.22500
C2150       C  0.34674919  0.80012571  0.14512748     0.12100
S2151       S  0.38469716  0.80011272  0.11475701    -0.06100
C2152       C  0.37925399  0.77339565  0.13255247    -0.09600
C2153       C  0.35854543  0.77646476  0.14792798    -0.26200
S2154       S  0.28476995  0.84386839  0.16095929    -0.03400
C2155       C  0.28713067  0.86940989  0.14149038    -0.16800
C2156       C  0.30969772  0.86914289  0.12786021    -0.14800
H2157       H  0.35617014  0.85075975  0.10736867     0.20500
H2158       H  0.31513716  0.79643621  0.17014542     0.16600
H2159       H  0.35181059  0.76165509  0.16005266     0.19100
H2160       H  0.31390737  0.88286881  0.11397408     0.12400
C2161       C  0.58693745  0.63617837  0.10254929     0.16300
C2162       C  0.56817143  0.65589819  0.09970201    -0.32700
C2163       C  0.54264517  0.65074655  0.10750640     0.20700
C2164       C  0.53597766  0.62660923  0.11664388     0.02900
C2165       C  0.55456638  0.60689620  0.11919736    -0.22500
C2166       C  0.58021282  0.61245002  0.11247046     0.12100
S2167       S  0.61964758  0.63966559  0.09743854    -0.06100
C2168       C  0.62426371  0.60941689  0.10991469    -0.09600
C2169       C  0.60148070  0.59706882  0.11671542    -0.26200
S2170       S  0.50467781  0.62430712  0.12630378    -0.03400
C2171       C  0.50045593  0.65654352  0.11887575    -0.16800
C2172       C  0.52224083  0.66815121  0.10877935    -0.14800
H2173       H  0.57354534  0.67485131  0.09292524     0.20500
H2174       H  0.54953453  0.58849337  0.12730599     0.16600
H2175       H  0.60069514  0.57856870  0.12581938     0.19100
H2176       H  0.52337619  0.68836370  0.10348384     0.12400
C2177       C  0.38128489  0.56531638  0.11975759     0.16300
C2178       C  0.38119408  0.53820288  0.12215542    -0.32700
C2179       C  0.35791976  0.52500505  0.11741189     0.20700
C2180       C  0.33566724  0.53809772  0.11033284     0.02900
C2181       C  0.33599252  0.56526289  0.10717109    -0.22500
C2182       C  0.35931105  0.57856289  0.11215066     0.12100
S2183       S  0.40662547  0.58486951  0.12761933    -0.06100
C2184       C  0.38771975  0.61132133  0.12031480    -0.09600
C2185       C  0.36307038  0.60509490  0.11203540    -0.26200
S2186       S  0.30869320  0.51855937  0.10803422    -0.03400
C2187       C  0.32772460  0.49256778  0.11669510    -0.16800
C2188       C  0.35359559  0.49896938  0.12071892    -0.14800
H2189       H  0.39822245  0.52793352  0.12846761     0.20500
H2190       H  0.31857558  0.57567215  0.10202765     0.16600
H2191       H  0.34819498  0.61922653  0.10765643     0.19100
H2192       H  0.36822259  0.48551241  0.12708031     0.12400
C2193       C  0.39268513  0.71089243  0.97663642     0.16300
C2194       C  0.38248439  0.71163310  0.99950045    -0.32700
C2195       C  0.39995571  0.70832357  0.01820580     0.20700
C2196       C  0.42634281  0.70435668  0.01426377     0.02900
C2197       C  0.43646912  0.70343314  0.99147141    -0.22500
C2198       C  0.41908403  0.70690070  0.97283731     0.12100
S2199       S  0.37498963  0.71480688  0.95149306    -0.06100
C2200       C  0.40353268  0.71118078  0.93575251    -0.09600
C2201       C  0.42540161  0.70705698  0.94950509    -0.26200
S2202       S  0.44449093  0.70140061  0.03910995    -0.03400
C2203       C  0.41631552  0.70557153  0.05519504    -0.16800
C2204       C  0.39403473  0.70888822  0.04171448    -0.14800
H2205       H  0.36190601  0.71484962  0.00257488     0.20500
H2206       H  0.45708473  0.70040461  0.98839725     0.16600
H2207       H  0.44496225  0.70424939  0.94277183     0.19100
H2208       H  0.37464211  0.71191769  0.04872626     0.12400
C2209       C  0.51731178  0.74102279  0.26098618     0.16300
C2210       C  0.51614545  0.74534116  0.23664527    -0.32700
C2211       C  0.49290923  0.73873942  0.22497795     0.20700
C2212       C  0.47156425  0.72919581  0.23723853     0.02900
C2213       C  0.47257875  0.72533065  0.26149745    -0.22500
C2214       C  0.49602219  0.73094163  0.27294286     0.12100
S2215       S  0.54470943  0.74411370  0.27792907    -0.06100
C2216       C  0.52739790  0.73099946  0.30104711    -0.09600
C2217       C  0.50172405  0.72508886  0.29579257    -0.26200
S2218       S  0.44631958  0.71946967  0.22004373    -0.03400
C2219       C  0.46457275  0.72787327  0.19586933    -0.16800
C2220       C  0.48896325  0.73808733  0.20108243    -0.14800
H2221       H  0.53308247  0.75209021  0.22704543     0.20500
H2222       H  0.45628380  0.71676613  0.27083565     0.16600
H2223       H  0.48839622  0.71540979  0.30770688     0.19100
H2224       H  0.50372437  0.74273185  0.18814898     0.12400
C2225       C  0.35093366  0.67581664  0.23651564     0.16300
C2226       C  0.34682120  0.67413102  0.26071738    -0.32700
C2227       C  0.32817827  0.65627769  0.26877312     0.20700
C2228       C  0.31370922  0.64133155  0.25335536     0.02900
C2229       C  0.31686811  0.64401697  0.22909775    -0.22500
C2230       C  0.33608185  0.66128856  0.22107124     0.12100
S2231       S  0.37607863  0.69228983  0.22371994    -0.06100
C2232       C  0.36655137  0.67942301  0.19730578    -0.09600
C2233       C  0.34461818  0.66375893  0.19840996    -0.26200
S2234       S  0.29558904  0.61757636  0.26647832    -0.03400
C2235       C  0.30782268  0.62773200  0.29297460    -0.16800
C2236       C  0.32435626  0.64897196  0.29162000    -0.14800
H2237       H  0.35900535  0.68479339  0.27280051     0.20500
H2238       H  0.30623632  0.63173568  0.21707806     0.16600
H2239       H  0.33676653  0.65299037  0.18377428     0.19100
H2240       H  0.33503328  0.65689883  0.30628468     0.12400
loop_ 
_geom_bond_atom_site_label_1 
_geom_bond_atom_site_label_2 
_geom_bond_distance 
_geom_bond_site_symmetry_2 
_ccdc_geom_bond_type 
O1          Cr19   2.020       .  S
O1            C9   1.268       .  A
O2          Cr19   1.968       .  S
O2            C3   1.258       .  A
C3            O4   1.268       .  A
C3         C2152   1.481       .  S
O4          Cr20   2.032       .  S
O5          Cr20   2.006       .  S
O5            C6   1.263       .  A
C6            O7   1.260       .  A
C6         C2219   1.473       .  S
O7          Cr21   1.998       .  S
O8          Cr21   1.970       .  S
O8            C9   1.258       .  A
C9         C2232   1.467       .  S
O10         Cr19   1.985       .  S
O10          C18   1.261       .  A
O11         Cr19   2.022       .  S
O11          C12   1.270       .  A
C12          O13   1.262       .  A
C12        C2203   1.480       .  S
O13         Cr20   1.979       .  S
O14         Cr20   2.036       .  S
O14          C15   1.273       .  A
C15          O16   1.259       .  A
C15        C2171   1.476       .  S
O16         Cr21   1.961       .  S
O17         Cr21   2.004       .  S
O17          C18   1.264       .  A
C18        C2184   1.473       .  S
Cr19         O22   1.775       .  S
Cr20         O22   1.778       .  S
Cr21         O22   1.765       .  S
O23         Cr41   1.969       .  S
O23          C31   1.256       .  A
O24         Cr41   2.001       .  S
O24          C25   1.262       .  A
C25          O26   1.260       .  A
C25        C2091   1.464       .  S
O26         Cr42   1.989       .  S
O27         Cr42   2.036       .  S
O27          C28   1.270       .  A
C28          O29   1.255       .  A
C28        C2072   1.476       .  S
O29         Cr43   1.965       .  S
O30         Cr43   2.015       .  S
O30          C31   1.265       .  A
C31        C2104   1.463       .  S
O32         Cr41   2.009       .  S
O32          C40   1.268       .  A
O33         Cr41   1.965       .  S
O33          C34   1.259       .  A
C34          O35   1.273       .  A
C34        C2120   1.479       .  S
O35         Cr42   2.036       .  S
O36         Cr42   1.975       .  S
O36          C37   1.261       .  A
C37          O38   1.269       .  A
C37        C2200   1.479       .  S
O38         Cr43   2.022       .  S
O39         Cr43   1.977       .  S
O39          C40   1.260       .  A
C40        C2136   1.471       .  S
Cr41         O44   1.762       .  S
Cr42         O44   1.774       .  S
Cr43         O44   1.773       .  S
O45         Cr63   2.023       .  S
O45          C53   1.267       .  A
O46         Cr63   1.965       .  S
O46          C47   1.257       .  A
C47          O48   1.270       .  A
C47        C1992   1.483       .  S
O48         Cr64   2.042       .  S
O49         Cr64   2.000       .  S
O49          C50   1.264       .  A
C50          O51   1.262       .  A
C50        C2059   1.471       .  S
O51         Cr65   1.998       .  S
O52         Cr65   1.963       .  S
O52          C53   1.257       .  A
C53        C2040   1.462       .  S
O54         Cr63   1.978       .  S
O54          C62   1.258       .  A
O55         Cr63   2.018       .  S
O55          C56   1.269       .  A
C56          O57   1.260       .  A
C56        C2027   1.474       .  S
O57         Cr64   1.971       .  S
O58         Cr64   2.033       .  S
O58          C59   1.272       .  A
C59          O60   1.259       .  A
C59        C2011   1.477       .  S
O60         Cr65   1.963       .  S
O61         Cr65   2.006       .  S
O61          C62   1.265       .  A
C62        C2168   1.471       .  S
Cr63         O66   1.773       .  S
Cr64         O66   1.778       .  S
Cr65         O66   1.763       .  S
O67         Cr85   1.971       .  S
O67          C75   1.258       .  A
O68         Cr85   2.006       .  S
O68          C69   1.262       .  A
C69          O70   1.260       .  A
C69        C1960   1.470       .  S
O70         Cr86   1.997       .  S
O71         Cr86   2.036       .  S
O71          C72   1.269       .  A
C72          O73   1.257       .  A
C72        C1928   1.480       .  S
O73         Cr87   1.964       .  S
O74         Cr87   2.014       .  S
O74          C75   1.267       .  A
C75        C1944   1.464       .  S
O76         Cr85   2.011       .  S
O76          C84   1.266       .  A
O77         Cr85   1.961       .  S
O77          C78   1.259       .  A
C78          O79   1.275       .  A
C78        C1979   1.478       .  S
O79         Cr86   2.042       .  S
O80         Cr86   1.974       .  S
O80          C81   1.261       .  A
C81          O82   1.269       .  A
C81        C2024   1.475       .  S
O82         Cr87   2.016       .  S
O83         Cr87   1.982       .  S
O83          C84   1.261       .  A
C84        C2123   1.475       .  S
Cr85         O88   1.764       .  S
Cr86         O88   1.774       .  S
Cr87         O88   1.770       .  S
O89        Cr107   2.010       .  S
O89          C97   1.264       .  A
O90        Cr107   1.962       .  S
O90          C91   1.257       .  A
C91          O92   1.272       .  A
C91        C1851   1.482       .  S
O92        Cr108   2.045       .  S
O93        Cr108   2.000       .  S
O93          C94   1.262       .  A
C94          O95   1.260       .  A
C94        C1912   1.473       .  S
O95        Cr109   1.993       .  S
O96        Cr109   1.964       .  S
O96          C97   1.256       .  A
C97        C1896   1.457       .  S
O98        Cr107   1.986       .  S
O98         C106   1.262       .  A
O99        Cr107   2.009       .  S
O99         C100   1.266       .  A
C100        O101   1.262       .  A
C100       C1880   1.477       .  S
O101       Cr108   1.981       .  S
O102       Cr108   2.043       .  S
O102        C103   1.275       .  A
C103        O104   1.258       .  A
C103       C1864   1.477       .  S
O104       Cr109   1.955       .  S
O105       Cr109   2.002       .  S
O105        C106   1.264       .  A
C106       C2008   1.469       .  S
Cr107       O110   1.775       .  S
Cr108       O110   1.781       .  S
Cr109       O110   1.763       .  S
O111       Cr129   1.972       .  S
O111        C119   1.257       .  A
O112       Cr129   2.000       .  S
O112        C113   1.263       .  A
C113        O114   1.260       .  A
C113       C1816   1.466       .  S
O114       Cr130   1.988       .  S
O115       Cr130   2.031       .  S
O115        C116   1.269       .  A
C116        O117   1.256       .  A
C116       C1784   1.475       .  S
O117       Cr131   1.965       .  S
O118       Cr131   2.009       .  S
O118        C119   1.264       .  A
C119       C1803   1.461       .  S
O120       Cr129   2.016       .  S
O120        C128   1.267       .  A
O121       Cr129   1.966       .  S
O121        C122   1.261       .  A
C122        O123   1.271       .  A
C122       C1832   1.476       .  S
O123       Cr130   2.027       .  S
O124       Cr130   1.973       .  S
O124        C125   1.260       .  A
C125        O126   1.268       .  A
C125       C1883   1.476       .  S
O126       Cr131   2.017       .  S
O127       Cr131   1.978       .  S
O127        C128   1.261       .  A
C128       C1976   1.475       .  S
Cr129       O132   1.766       .  S
Cr130       O132   1.779       .  S
Cr131       O132   1.773       .  S
O133       Cr151   2.008       .  S
O133        C141   1.263       .  A
O134       Cr151   1.967       .  S
O134        C135   1.256       .  A
C135        O136   1.268       .  A
C135       C1720   1.475       .  S
O136       Cr152   2.030       .  S
O137       Cr152   1.995       .  S
O137        C138   1.262       .  A
C138        O139   1.262       .  A
C138       C1752   1.468       .  S
O139       Cr153   2.002       .  S
O140       Cr153   1.973       .  S
O140        C141   1.258       .  A
C141       C1768   1.461       .  S
O142       Cr151   1.976       .  S
O142        C150   1.260       .  A
O143       Cr151   2.013       .  S
O143        C144   1.268       .  A
C144        O145   1.263       .  A
C144       C1736   1.477       .  S
O145       Cr152   1.979       .  S
O146       Cr152   2.033       .  S
O146        C147   1.272       .  A
C147        O148   1.260       .  A
C147       C2187   1.479       .  S
O148       Cr153   1.966       .  S
O149       Cr153   2.010       .  S
O149        C150   1.267       .  A
C150       C1867   1.472       .  S
Cr151       O154   1.772       .  S
Cr152       O154   1.777       .  S
Cr153       O154   1.765       .  S
O155       Cr173   1.961       .  S
O155        C163   1.256       .  A
O156       Cr173   1.998       .  S
O156        C157   1.260       .  A
C157        O158   1.262       .  A
C157       C1688   1.470       .  S
O158       Cr174   2.003       .  S
O159       Cr174   2.033       .  S
O159        C160   1.269       .  A
C160        O161   1.257       .  A
C160       C1672   1.480       .  S
O161       Cr175   1.965       .  S
O162       Cr175   2.023       .  S
O162        C163   1.268       .  A
C163       C1707   1.461       .  S
O164       Cr173   2.004       .  S
O164        C172   1.264       .  A
O165       Cr173   1.952       .  S
O165        C166   1.257       .  A
C166        O167   1.275       .  A
C166       C2139   1.474       .  S
O167       Cr174   2.044       .  S
O168       Cr174   1.974       .  S
O168        C169   1.262       .  A
C169        O170   1.271       .  A
C169       C1739   1.478       .  S
O170       Cr175   2.021       .  S
O171       Cr175   1.979       .  S
O171        C172   1.259       .  A
C172       C1835   1.468       .  S
Cr173       O176   1.762       .  S
Cr174       O176   1.778       .  S
Cr175       O176   1.773       .  S
O177       Cr195   2.004       .  S
O177        C185   1.265       .  A
O178       Cr195   1.970       .  S
O178        C179   1.258       .  A
C179        O180   1.271       .  A
C179       C1608   1.487       .  S
O180       Cr196   2.040       .  S
O181       Cr196   2.011       .  S
O181        C182   1.264       .  A
C182        O183   1.260       .  A
C182       C2056   1.476       .  S
O183       Cr197   1.994       .  S
O184       Cr197   1.969       .  S
O184        C185   1.260       .  A
C185       C1899   1.457       .  S
O186       Cr195   1.984       .  S
O186        C194   1.259       .  A
O187       Cr195   2.003       .  S
O187        C188   1.265       .  A
C188        O189   1.261       .  A
C188       C1656   1.472       .  S
O189       Cr196   1.979       .  S
O190       Cr196   2.042       .  S
O190        C191   1.274       .  A
C191        O192   1.260       .  A
C191       C1624   1.478       .  S
O192       Cr197   1.959       .  S
O193       Cr197   2.002       .  S
O193        C194   1.262       .  A
C194       C1640   1.471       .  S
Cr195       O198   1.773       .  S
Cr196       O198   1.775       .  S
Cr197       O198   1.763       .  S
O199       Cr217   1.966       .  S
O199        C207   1.257       .  A
O200       Cr217   1.995       .  S
O200        C201   1.260       .  A
C201        O202   1.262       .  A
C201       C1963   1.468       .  S
O202       Cr218   2.001       .  S
O203       Cr218   2.033       .  S
O203        C204   1.267       .  A
C204        O205   1.258       .  A
C204       C1560   1.480       .  S
O205       Cr219   1.970       .  S
O206       Cr219   2.015       .  S
O206        C207   1.266       .  A
C207       C1800   1.464       .  S
O208       Cr217   2.004       .  S
O208        C216   1.264       .  A
O209       Cr217   1.963       .  S
O209        C210   1.260       .  A
C210        O211   1.272       .  A
C210       C1576   1.476       .  S
O211       Cr218   2.034       .  S
O212       Cr218   1.969       .  S
O212        C213   1.261       .  A
C213        O214   1.270       .  A
C213       C1659   1.472       .  S
O214       Cr219   2.016       .  S
O215       Cr219   1.986       .  S
O215        C216   1.260       .  A
C216       C1595   1.474       .  S
Cr217       O220   1.764       .  S
Cr218       O220   1.779       .  S
Cr219       O220   1.775       .  S
O221       Cr239   2.011       .  S
O221        C229   1.266       .  A
O222       Cr239   1.971       .  S
O222        C223   1.257       .  A
C223        O224   1.267       .  A
C223       C1512   1.483       .  S
O224       Cr240   2.031       .  S
O225       Cr240   2.003       .  S
O225        C226   1.263       .  A
C226        O227   1.263       .  A
C226       C2216   1.474       .  S
O227       Cr241   2.007       .  S
O228       Cr241   1.970       .  S
O228        C229   1.259       .  A
C229       C2043   1.465       .  S
O230       Cr239   1.979       .  S
O230        C238   1.259       .  A
O231       Cr239   2.016       .  S
O231        C232   1.269       .  A
C232        O233   1.264       .  A
C232       C1547   1.477       .  S
O233       Cr240   1.978       .  S
O234       Cr240   2.035       .  S
O234        C235   1.272       .  A
C235        O236   1.260       .  A
C235       C1528   1.480       .  S
O236       Cr241   1.970       .  S
O237       Cr241   2.007       .  S
O237        C238   1.265       .  A
C238       C1627   1.472       .  S
Cr239       O242   1.775       .  S
Cr240       O242   1.774       .  S
Cr241       O242   1.766       .  S
O243       Cr261   1.970       .  S
O243        C251   1.258       .  A
O244       Cr261   1.998       .  S
O244        C245   1.260       .  A
C245        O246   1.260       .  A
C245       C2088   1.465       .  S
O246       Cr262   1.997       .  S
O247       Cr262   2.032       .  S
O247        C248   1.268       .  A
C248        O249   1.257       .  A
C248       C1480   1.482       .  S
O249       Cr263   1.967       .  S
O250       Cr263   2.015       .  S
O250        C251   1.268       .  A
C251       C1947   1.464       .  S
O252       Cr261   2.007       .  S
O252        C260   1.264       .  A
O253       Cr261   1.963       .  S
O253        C254   1.261       .  A
C254        O255   1.273       .  A
C254       C1496   1.475       .  S
O255       Cr262   2.033       .  S
O256       Cr262   1.968       .  S
O256        C257   1.260       .  A
C257        O258   1.270       .  A
C257       C1544   1.476       .  S
O258       Cr263   2.021       .  S
O259       Cr263   1.983       .  S
O259        C260   1.260       .  A
C260       C1579   1.475       .  S
Cr261       O264   1.766       .  S
Cr262       O264   1.775       .  S
Cr263       O264   1.772       .  S
O265       Cr283   2.027       .  S
O265        C273   1.270       .  A
O266       Cr283   1.961       .  S
O266        C267   1.256       .  A
C267        O268   1.270       .  A
C267       C1432   1.479       .  S
O268       Cr284   2.037       .  S
O269       Cr284   2.000       .  S
O269        C270   1.260       .  A
C270        O271   1.259       .  A
C270       C1755   1.469       .  S
O271       Cr285   2.001       .  S
O272       Cr285   1.968       .  S
O272        C273   1.258       .  A
C273       C2235   1.468       .  S
O274       Cr283   1.981       .  S
O274        C282   1.259       .  A
O275       Cr283   2.029       .  S
O275        C276   1.271       .  A
C276        O277   1.260       .  A
C276       C1464   1.481       .  S
O277       Cr284   1.968       .  S
O278       Cr284   2.048       .  S
O278        C279   1.277       .  A
C279        O280   1.259       .  A
C279       C1448   1.478       .  S
O280       Cr285   1.953       .  S
O281       Cr285   2.008       .  S
O281        C282   1.264       .  A
C282       C1531   1.471       .  S
Cr283       O286   1.773       .  S
Cr284       O286   1.776       .  S
Cr285       O286   1.764       .  S
O287       Cr305   1.976       .  S
O287        C295   1.260       .  A
O288       Cr305   1.998       .  S
O288        C289   1.259       .  A
C289        O290   1.263       .  A
C289       C1691   1.472       .  S
O290       Cr306   2.008       .  S
O291       Cr306   2.029       .  S
O291        C292   1.267       .  A
C292        O293   1.257       .  A
C292       C1400   1.478       .  S
O293       Cr307   1.963       .  S
O294       Cr307   2.011       .  S
O294        C295   1.268       .  A
C295       C2107   1.465       .  S
O296       Cr305   1.999       .  S
O296        C304   1.262       .  A
O297       Cr305   1.963       .  S
O297        C298   1.261       .  A
C298        O299   1.274       .  A
C298       C1419   1.476       .  S
O299       Cr306   2.035       .  S
O300       Cr306   1.981       .  S
O300        C301   1.263       .  A
C301        O302   1.268       .  A
C301       C1467   1.481       .  S
O302       Cr307   2.016       .  S
O303       Cr307   1.982       .  S
O303        C304   1.260       .  A
C304       C1499   1.470       .  S
Cr305       O308   1.767       .  S
Cr306       O308   1.775       .  S
Cr307       O308   1.772       .  S
O309       Cr327   2.009       .  S
O309        C317   1.266       .  A
O310       Cr327   1.961       .  S
O310        C311   1.255       .  A
C311        O312   1.269       .  A
C311       C1368   1.476       .  S
O312       Cr328   2.034       .  S
O313       Cr328   2.005       .  S
O313        C314   1.262       .  A
C314        O315   1.260       .  A
C314       C1915   1.473       .  S
O315       Cr329   1.995       .  S
O316       Cr329   1.971       .  S
O316        C317   1.260       .  A
C317       C1771   1.461       .  S
O318       Cr327   1.982       .  S
O318        C326   1.258       .  A
O319       Cr327   2.011       .  S
O319        C320   1.267       .  A
C320        O321   1.258       .  A
C320       C1384   1.469       .  S
O321       Cr328   1.963       .  S
O322       Cr328   2.038       .  S
O322        C323   1.274       .  A
C323        O324   1.261       .  A
C323       C1643   1.476       .  S
O324       Cr329   1.962       .  S
O325       Cr329   2.007       .  S
O325        C326   1.264       .  A
C326       C1451   1.474       .  S
Cr327       O330   1.774       .  S
Cr328       O330   1.778       .  S
Cr329       O330   1.762       .  S
O331       Cr349   1.970       .  S
O331        C339   1.259       .  A
O332       Cr349   1.997       .  S
O332        C333   1.260       .  A
C333        O334   1.260       .  A
C333       C1819   1.466       .  S
O334       Cr350   1.998       .  S
O335       Cr350   2.040       .  S
O335        C336   1.270       .  A
C336        O337   1.254       .  A
C336       C1352   1.479       .  S
O337       Cr351   1.955       .  S
O338       Cr351   2.012       .  S
O338        C339   1.268       .  A
C339       C1704   1.464       .  S
O340       Cr349   2.006       .  S
O340        C348   1.264       .  A
O341       Cr349   1.962       .  S
O341        C342   1.261       .  A
C342        O343   1.276       .  A
C342       C1592   1.480       .  S
O343       Cr350   2.045       .  S
O344       Cr350   1.963       .  S
O344        C345   1.259       .  A
C345        O346   1.267       .  A
C345       C1387   1.470       .  S
O346       Cr351   2.012       .  S
O347       Cr351   1.977       .  S
O347        C348   1.258       .  A
C348       C1416   1.470       .  S
Cr349       O352   1.763       .  S
Cr350       O352   1.775       .  S
Cr351       O352   1.771       .  S
O353       Cr371   2.014       .  S
O353        C361   1.267       .  A
O354       Cr371   1.960       .  S
O354        C355   1.255       .  A
C355        O356   1.269       .  A
C355       C1563   1.477       .  S
O356       Cr372   2.038       .  S
O357       Cr372   1.996       .  S
O357        C358   1.261       .  A
C358        O359   1.263       .  A
C358       C1320   1.469       .  S
O359       Cr373   2.005       .  S
O360       Cr373   1.964       .  S
O360        C361   1.259       .  A
C361       C1339   1.460       .  S
O362       Cr371   1.975       .  S
O362        C370   1.257       .  A
O363       Cr371   2.014       .  S
O363        C364   1.268       .  A
C364        O365   1.256       .  A
C364       C1304   1.465       .  S
O365       Cr372   1.954       .  S
O366       Cr372   2.038       .  S
O366        C367   1.274       .  A
C367        O368   1.259       .  A
C367       C1272   1.471       .  S
O368       Cr373   1.955       .  S
O369       Cr373   2.015       .  S
O369        C370   1.266       .  A
C370       C1288   1.472       .  S
Cr371       O374   1.770       .  S
Cr372       O374   1.776       .  S
Cr373       O374   1.761       .  S
O375       Cr393   1.979       .  S
O375        C383   1.261       .  A
O376       Cr393   1.998       .  S
O376        C377   1.262       .  A
C377        O378   1.262       .  A
C377       C1224   1.474       .  S
O378       Cr394   2.001       .  S
O379       Cr394   2.039       .  S
O379        C380   1.270       .  A
C380        O381   1.257       .  A
C380       C1611   1.485       .  S
O381       Cr395   1.969       .  S
O382       Cr395   2.002       .  S
O382        C383   1.264       .  A
C383       C1208   1.462       .  S
O384       Cr393   2.007       .  S
O384        C392   1.264       .  A
O385       Cr393   1.966       .  S
O385        C386   1.261       .  A
C386        O387   1.275       .  A
C386       C1243   1.483   1_655  S
O387       Cr394   2.043       .  S
O388       Cr394   1.972       .  S
O388        C389   1.261       .  A
C389        O390   1.265       .  A
C389       C1307   1.466       .  S
O390       Cr395   2.001       .  S
O391       Cr395   1.983       .  S
O391        C392   1.260       .  A
C392       C1259   1.473       .  S
Cr393       O396   1.764       .  S
Cr394       O396   1.778       .  S
Cr395       O396   1.773       .  S
O397       Cr415   2.029       .  S
O397        C405   1.271       .  A
O398       Cr415   1.971       .  S
O398        C399   1.255       .  A
C399        O400   1.263       .  A
C399       C1403   1.476       .  S
O400       Cr416   2.022       .  S
O401       Cr416   1.994       .  S
O401        C402   1.260       .  A
C402        O403   1.263       .  A
C402       C1179   1.468       .  S
O403       Cr417   2.008       .  S
O404       Cr417   1.959       .  S
O404        C405   1.258       .  A
C405       C1195   1.470       .  S
O406       Cr415   1.979       .  S
O406        C414   1.258       .  A
O407       Cr415   2.033       .  S
O407        C408   1.274       .  A
C408        O409   1.261       .  A
C408       C1160   1.477       .  S
O409       Cr416   1.959       .  S
O410       Cr416   2.034       .  S
O410        C411   1.272       .  A
C411        O412   1.261       .  A
C411       C1128   1.478   1_455  S
O412       Cr417   1.968       .  S
O413       Cr417   2.006       .  S
O413        C414   1.265       .  A
C414       C1144   1.476       .  S
Cr415       O418   1.774       .  S
Cr416       O418   1.774       .  S
Cr417       O418   1.766       .  S
O419       Cr437   1.965       .  S
O419        C427   1.257       .  A
O420       Cr437   2.009       .  S
O420        C421   1.262       .  A
C421        O422   1.261       .  A
C421       C1064   1.474       .  S
O422       Cr438   2.001       .  S
O423       Cr438   2.027       .  S
O423        C424   1.267       .  A
C424        O425   1.257       .  A
C424       C1435   1.477       .  S
O425       Cr439   1.969       .  S
O426       Cr439   2.023       .  S
O426        C427   1.270       .  A
C427       C1080   1.466       .  S
O428       Cr437   2.006       .  S
O428        C436   1.265       .  A
O429       Cr437   1.951       .  S
O429        C430   1.256       .  A
C430        O431   1.275       .  A
C430       C1099   1.476       .  S
O431       Cr438   2.048       .  S
O432       Cr438   1.976       .  S
O432        C433   1.264       .  A
C433        O434   1.270       .  A
C433       C1163   1.479       .  S
O434       Cr439   2.021       .  S
O435       Cr439   1.981       .  S
O435        C436   1.259       .  A
C436       C1115   1.473       .  S
Cr437       O440   1.761       .  S
Cr438       O440   1.774       .  S
Cr439       O440   1.769       .  S
O441       Cr459   2.021       .  S
O441        C449   1.270       .  A
O442       Cr459   1.960       .  S
O442        C443   1.256       .  A
C443        O444   1.271       .  A
C443       C1483   1.482       .  S
O444       Cr460   2.043       .  S
O445       Cr460   1.998       .  S
O445        C446   1.259       .  A
C446        O447   1.262       .  A
C446       C1048   1.473       .  S
O447       Cr461   2.009       .  S
O448       Cr461   1.959       .  S
O448        C449   1.258       .  A
C449       C1032   1.460       .  S
O450       Cr459   1.982       .  S
O450        C458   1.259       .  A
O451       Cr459   2.019       .  S
O451        C452   1.269       .  A
C452        O453   1.259       .  A
C452       C1016   1.470       .  S
O453       Cr460   1.958       .  S
O454       Cr460   2.057       .  S
O454        C455   1.278       .  A
C455        O456   1.257       .  A
C455       C1291   1.479       .  S
O456       Cr461   1.949       .  S
O457       Cr461   2.007       .  S
O457        C458   1.264       .  A
C458       C1131   1.472       .  S
Cr459       O462   1.771       .  S
Cr460       O462   1.773       .  S
Cr461       O462   1.758       .  S
O463       Cr481   1.973       .  S
O463        C471   1.259       .  A
O464       Cr481   1.992       .  S
O464        C465   1.262       .  A
C465        O466   1.265       .  A
C465       C1003   1.476       .  S
O466       Cr482   2.010       .  S
O467       Cr482   2.041       .  S
O467        C468   1.270       .  A
C468        O469   1.255       .  A
C468       C1515   1.481       .  S
O469       Cr483   1.962       .  S
O470       Cr483   2.006       .  S
O470        C471   1.264       .  A
C471        C984   1.459       .  S
O472       Cr481   2.005       .  S
O472        C480   1.265       .  A
O473       Cr481   1.969       .  S
O473        C474   1.261       .  A
C474        O475   1.274       .  A
C474       C1256   1.481       .  S
O475       Cr482   2.038       .  S
O476       Cr482   1.970       .  S
O476        C477   1.261       .  A
C477        O478   1.266       .  A
C477       C1019   1.470       .  S
O478       Cr483   2.008       .  S
O479       Cr483   1.978       .  S
O479        C480   1.258       .  A
C480       C1096   1.471       .  S
Cr481       O484   1.761       .  S
Cr482       O484   1.777       .  S
Cr483       O484   1.773       .  S
O485       Cr503   2.019       .  S
O485        C493   1.266       .  A
O486       Cr503   1.969       .  S
O486        C487   1.258       .  A
C487        O488   1.269       .  A
C487       C1355   1.477       .  S
O488       Cr504   2.030       .  S
O489       Cr504   1.988       .  S
O489        C490   1.258       .  A
C490        O491   1.263       .  A
C490        C952   1.463       .  S
O491       Cr505   2.002       .  S
O492       Cr505   1.964       .  S
O492        C493   1.257       .  A
C493        C968   1.461       .  S
O494       Cr503   1.978       .  S
O494        C502   1.259       .  A
O495       Cr503   2.020       .  S
O495        C496   1.270       .  A
C496        O497   1.257       .  A
C496        C936   1.469       .  S
O497       Cr504   1.959       .  S
O498       Cr504   2.039       .  S
O498        C499   1.273       .  A
C499        O500   1.258       .  A
C499       C1147   1.475       .  S
O500       Cr505   1.959       .  S
O501       Cr505   2.004       .  S
O501        C502   1.266       .  A
C502       C1275   1.467       .  S
Cr503       O506   1.773       .  S
Cr504       O506   1.771       .  S
Cr505       O506   1.759       .  S
O507       Cr525   1.973       .  S
O507        C515   1.258       .  A
O508       Cr525   1.996       .  S
O508        C509   1.260       .  A
C509        O510   1.262       .  A
C509        C907   1.468       .  S
O510       Cr526   2.000       .  S
O511       Cr526   2.026       .  S
O511        C512   1.268       .  A
C512        O513   1.259       .  A
C512       C1371   1.478       .  S
O513       Cr527   1.975       .  S
O514       Cr527   2.004       .  S
O514        C515   1.263       .  A
C515        C920   1.458       .  S
O516       Cr525   2.001       .  S
O516        C524   1.265       .  A
O517       Cr525   1.963       .  S
O517        C518   1.259       .  A
C518        O519   1.271       .  A
C518       C1112   1.476   1_545  S
O519       Cr526   2.031       .  S
O520       Cr526   1.978       .  S
O520        C521   1.263       .  A
C521        O522   1.266       .  A
C521        C939   1.470       .  S
O522       Cr527   2.005       .  S
O523       Cr527   1.991       .  S
O523        C524   1.263       .  A
C524       C1240   1.475       .  S
Cr525       O528   1.763       .  S
Cr526       O528   1.778       .  S
Cr527       O528   1.774       .  S
O529       Cr547   1.970       .  S
O529        C537   1.258       .  A
O530       Cr547   1.993       .  S
O530        C531   1.263       .  A
C531        O532   1.264       .  A
C531       C1000   1.475       .  S
O532       Cr548   2.005       .  S
O533       Cr548   2.034       .  S
O533        C534   1.269       .  A
C534        O535   1.258       .  A
C534       C1848   1.483       .  S
O535       Cr549   1.974       .  S
O536       Cr549   2.015       .  S
O536        C537   1.266       .  A
C537       C1211   1.465       .  S
O538       Cr547   2.004       .  S
O538        C546   1.264       .  A
O539       Cr547   1.967       .  S
O539        C540   1.259       .  A
C540        O541   1.272       .  A
C540        C856   1.479   1_545  S
O541       Cr548   2.034       .  S
O542       Cr548   1.979       .  S
O542        C543   1.263       .  A
C543        O544   1.269       .  A
C543        C891   1.476       .  S
O544       Cr549   2.014       .  S
O545       Cr549   1.978       .  S
O545        C546   1.259       .  A
C546        C875   1.470       .  S
Cr547       O550   1.765       .  S
Cr548       O550   1.780       .  S
Cr549       O550   1.773       .  S
O551       Cr569   2.012       .  S
O551        C559   1.265       .  A
O552       Cr569   1.969       .  S
O552        C553   1.257       .  A
C553        O554   1.269       .  A
C553       C1787   1.476       .  S
O554       Cr570   2.029       .  S
O555       Cr570   2.003       .  S
O555        C556   1.262       .  A
C556        O557   1.261       .  A
C556       C1051   1.472       .  S
O557       Cr571   1.998       .  S
O558       Cr571   1.966       .  S
O558        C559   1.258       .  A
C559       C1336   1.459       .  S
O560       Cr569   1.980       .  S
O560        C568   1.260       .  A
O561       Cr569   2.017       .  S
O561        C562   1.269       .  A
C562        O563   1.261       .  A
C562        C888   1.477       .  S
O563       Cr570   1.976       .  S
O564       Cr570   2.032       .  S
O564        C565   1.272       .  A
C565        O566   1.258       .  A
C565        C827   1.475   1_545  S
O566       Cr571   1.958       .  S
O567       Cr571   2.002       .  S
O567        C568   1.264       .  A
C568        C843   1.466       .  S
Cr569       O572   1.774       .  S
Cr570       O572   1.775       .  S
Cr571       O572   1.763       .  S
O573       Cr591   1.967       .  S
O573        C581   1.257       .  A
O574       Cr591   2.003       .  S
O574        C575   1.262       .  A
C575        O576   1.262       .  A
C575       C1067   1.474       .  S
O576       Cr592   2.003       .  S
O577       Cr592   2.046       .  S
O577        C578   1.272       .  A
C578        O579   1.257       .  A
C578       C1995   1.485       .  S
O579       Cr593   1.962       .  S
O580       Cr593   2.014       .  S
O580        C581   1.266       .  A
C581        C987   1.461       .  S
O582       Cr591   2.007       .  S
O582        C590   1.265       .  A
O583       Cr591   1.952       .  S
O583        C584   1.257       .  A
C584        O585   1.276       .  A
C584        C792   1.480   1_655  S
O585       Cr592   2.051       .  S
O586       Cr592   1.978       .  S
O586        C587   1.262       .  A
C587        O588   1.268       .  A
C587        C808   1.476       .  S
O588       Cr593   2.013       .  S
O589       Cr593   1.981       .  S
O589        C590   1.260       .  A
C590        C859   1.471       .  S
Cr591       O594   1.761       .  S
Cr592       O594   1.778       .  S
Cr593       O594   1.773       .  S
O595       Cr613   2.016       .  S
O595        C603   1.268       .  A
O596       Cr613   1.967       .  S
O596        C597   1.255       .  A
C597        O598   1.266       .  A
C597       C1931   1.478       .  S
O598       Cr614   2.029       .  S
O599       Cr614   1.999       .  S
O599        C600   1.263       .  A
C600        O601   1.261       .  A
C600       C1176   1.465       .  S
O601       Cr615   1.999       .  S
O602       Cr615   1.965       .  S
O602        C603   1.258       .  A
C603       C1035   1.463       .  S
O604       Cr613   1.977       .  S
O604        C612   1.258       .  A
O605       Cr613   2.022       .  S
O605        C606   1.271       .  A
C606        O607   1.262       .  A
C606        C811   1.476       .  S
O607       Cr614   1.969       .  S
O608       Cr614   2.027       .  S
O608        C609   1.271       .  A
C609        O610   1.260       .  A
C609        C776   1.473   1_655  S
O610       Cr615   1.970       .  S
O611       Cr615   2.002       .  S
O611        C612   1.263       .  A
C612        C824   1.470       .  S
Cr613       O616   1.771       .  S
Cr614       O616   1.775       .  S
Cr615       O616   1.764       .  S
O617       Cr635   1.962       .  S
O617        C625   1.258       .  A
O618       Cr635   2.009       .  S
O618        C619   1.263       .  A
C619        O620   1.262       .  A
C619        C904   1.472       .  S
O620       Cr636   2.000       .  S
O621       Cr636   2.036       .  S
O621        C622   1.267       .  A
C622        O623   1.254       .  A
C622       C2155   1.479       .  S
O623       Cr637   1.962       .  S
O624       Cr637   2.026       .  S
O624        C625   1.270       .  A
C625       C1083   1.464       .  S
O626       Cr635   2.015       .  S
O626        C634   1.265       .  A
O627       Cr635   1.962       .  S
O627        C628   1.261       .  A
C628        O629   1.275       .  A
C628        C747   1.478   1_565  S
O629       Cr636   2.042       .  S
O630       Cr636   1.966       .  S
O630        C631   1.260       .  A
C631        O632   1.273       .  A
C631        C763   1.474       .  S
O632       Cr637   2.022       .  S
O633       Cr637   1.972       .  S
O633        C634   1.255       .  A
C634        C795   1.474       .  S
Cr635       O638   1.764       .  S
Cr636       O638   1.777       .  S
Cr637       O638   1.769       .  S
O639       Cr657   1.994       .  S
O639        C647   1.261       .  A
O640       Cr657   1.994       .  S
O640        C641   1.259       .  A
C641        O642   1.260       .  A
C641       C2075   1.468       .  S
O642       Cr658   1.997       .  S
O643       Cr658   2.028       .  S
O643        C644   1.270       .  A
C644        O645   1.259       .  A
C644        C955   1.473       .  S
O645       Cr659   1.966       .  S
O646       Cr659   1.996       .  S
O646        C647   1.261       .  A
C647       C1192   1.462       .  S
O648       Cr657   2.015       .  S
O648        C656   1.267       .  A
O649       Cr657   1.970       .  S
O649        C650   1.263       .  A
C650        O651   1.273       .  A
C650        C760   1.477       .  S
O651       Cr658   2.026       .  S
O652       Cr658   1.992       .  S
O652        C653   1.261       .  A
C653        O654   1.262       .  A
C653        C728   1.475       .  S
O654       Cr659   1.990       .  S
O655       Cr659   1.981       .  S
O655        C656   1.260       .  A
C656        C779   1.474       .  S
Cr657       O660   1.771       .  S
Cr658       O660   1.779       .  S
Cr659       O660   1.766       .  S
O661       Cr679   1.966       .  S
O661        C669   1.257       .  A
O662       Cr679   1.991       .  S
O662        C663   1.261       .  A
C663        O664   1.263       .  A
C663       C1227   1.470       .  S
O664       Cr680   2.005       .  S
O665       Cr680   2.030       .  S
O665        C666   1.268       .  A
C666        O667   1.257       .  A
C666       C1723   1.475       .  S
O667       Cr681   1.969       .  S
O668       Cr681   2.011       .  S
O668        C669   1.264       .  A
C669        C923   1.460       .  S
O670       Cr679   2.002       .  S
O670        C678   1.264       .  A
O671       Cr679   1.960       .  S
O671        C672   1.258       .  A
C672        O673   1.272       .  A
C672        C872   1.473       .  S
O673       Cr680   2.033       .  S
O674       Cr680   1.978       .  S
O674        C675   1.263       .  A
C675        O676   1.268       .  A
C675        C715   1.471       .  S
O676       Cr681   2.008       .  S
O677       Cr681   1.982       .  S
O677        C678   1.260       .  A
C678        C744   1.468       .  S
Cr679       O682   1.760       .  S
Cr680       O682   1.778       .  S
Cr681       O682   1.770       .  S
O683       Cr701   2.016       .  S
O683        C691   1.267       .  A
O684       Cr701   1.957       .  S
O684        C685   1.255       .  A
C685        O686   1.270       .  A
C685       C1675   1.477       .  S
O686       Cr702   2.037       .  S
O687       Cr702   1.995       .  S
O687        C688   1.260       .  A
C688        O689   1.260       .  A
C688       C1323   1.467       .  S
O689       Cr703   1.993       .  S
O690       Cr703   1.965       .  S
O690        C691   1.258       .  A
C691        C971   1.464       .  S
O692       Cr701   1.986       .  S
O692        C700   1.260       .  A
O693       Cr701   2.015       .  S
O693        C694   1.267       .  A
C694        O695   1.258       .  A
C694        C712   1.471       .  S
O695       Cr702   1.968       .  S
O696       Cr702   2.031       .  S
O696        C697   1.273       .  A
C697        O698   1.260       .  A
C697        C840   1.474   1_455  S
O698       Cr703   1.960       .  S
O699       Cr703   1.999       .  S
O699        C700   1.263       .  A
C700        C731   1.472       .  S
Cr701       O704   1.774       .  S
Cr702       O704   1.776       .  S
Cr703       O704   1.761       .  S
C705        S711   1.704       .  A
C705        C710   1.387       .  A
C705        C706   1.401   1_556  A
C706        C707   1.401       .  A
C706        H717   1.083       .  S
C707        C716   1.371       .  A
C707        C708   1.387       .  A
C708        S714   1.706       .  A
C708        C709   1.402   1_554  A
C709        C710   1.402       .  A
C709        H718   1.083       .  S
C710        C713   1.372       .  A
S711        C712   1.724       .  A
C712        C713   1.386       .  A
C713        H719   1.083       .  S
S714        C715   1.724       .  A
C715        C716   1.386       .  A
C716        H720   1.083       .  S
C721        S727   1.716       .  A
C721        C726   1.386       .  A
C721        C722   1.407       .  A
C722        C723   1.408       .  A
C722        H733   1.084       .  S
C723        C732   1.377       .  A
C723        C724   1.388       .  A
C724        S730   1.701       .  A
C724        C725   1.397       .  A
C725        C726   1.399       .  A
C725        H734   1.083       .  S
C726        C729   1.366   1_545  A
S727        C728   1.725   1_545  A
C728        C729   1.386       .  A
C729        H735   1.083       .  S
S730        C731   1.721       .  A
C731        C732   1.389       .  A
C732        H736   1.084       .  S
C737        S743   1.705       .  A
C737        C742   1.387       .  A
C737        C738   1.399       .  A
C738        C739   1.401       .  A
C738        H749   1.083       .  S
C739        C748   1.367       .  A
C739        C740   1.386       .  A
C740        S746   1.715       .  A
C740        C741   1.406       .  A
C741        C742   1.407       .  A
C741        H750   1.082       .  S
C742        C745   1.375       .  A
S743        C744   1.720       .  A
C744        C745   1.388       .  A
C745        H751   1.083       .  S
S746        C747   1.726       .  A
C747        C748   1.387       .  A
C748        H752   1.083   1_545  S
C753        S759   1.703       .  A
C753        C758   1.387       .  A
C753        C754   1.400   1_556  A
C754        C755   1.400       .  A
C754        H765   1.083       .  S
C755        C764   1.372       .  A
C755        C756   1.387       .  A
C756        S762   1.710       .  A
C756        C757   1.406   1_554  A
C757        C758   1.406       .  A
C757        H766   1.082       .  S
C758        C761   1.377       .  A
S759        C760   1.723       .  A
C760        C761   1.390       .  A
C761        H767   1.083       .  S
S762        C763   1.727       .  A
C763        C764   1.385       .  A
C764        H768   1.083       .  S
C769        S775   1.709       .  A
C769        C774   1.387       .  A
C769        C770   1.402       .  A
C770        C771   1.404       .  A
C770        H781   1.083       .  S
C771        C780   1.370       .  A
C771        C772   1.387       .  A
C772        S778   1.709       .  A
C772        C773   1.401       .  A
C773        C774   1.403       .  A
C773        H782   1.082       .  S
C774        C777   1.369       .  A
S775        C776   1.724       .  A
C776        C777   1.387       .  A
C777        H783   1.083   1_455  S
S778        C779   1.723       .  A
C779        C780   1.388       .  A
C780        H784   1.083       .  S
C785        S791   1.697       .  A
C785        C790   1.387       .  A
C785        C786   1.399       .  A
C786        C787   1.398       .  A
C786        H797   1.083       .  S
C787        C796   1.372       .  A
C787        C788   1.387       .  A
C788        S794   1.712       .  A
C788        C789   1.409       .  A
C789        C790   1.408       .  A
C789        H798   1.083       .  S
C790        C793   1.383       .  A
S791        C792   1.725       .  A
C792        C793   1.391       .  A
C793        H799   1.083       .  S
S794        C795   1.727       .  A
C795        C796   1.384       .  A
C796        H800   1.083       .  S
C801        S807   1.706       .  A
C801        C806   1.387       .  A
C801        C802   1.400   1_554  A
C802        C803   1.401       .  A
C802        H813   1.082       .  S
C803        C812   1.368       .  A
C803        C804   1.386       .  A
C804        S810   1.713       .  A
C804        C805   1.405   1_556  A
C805        C806   1.406       .  A
C805        H814   1.083       .  S
C806        C809   1.374       .  A
S807        C808   1.723       .  A
C808        C809   1.390       .  A
C809        H815   1.083       .  S
S810        C811   1.725       .  A
C811        C812   1.387       .  A
C812        H816   1.083       .  S
C817        S823   1.706       .  A
C817        C822   1.387       .  A
C817        C818   1.399       .  A
C818        C819   1.401       .  A
C818        H829   1.083       .  S
C819        C828   1.366       .  A
C819        C820   1.386       .  A
C820        S826   1.714       .  A
C820        C821   1.404       .  A
C821        C822   1.406       .  A
C821        H830   1.083       .  S
C822        C825   1.373       .  A
S823        C824   1.721       .  A
C824        C825   1.388       .  A
C825        H831   1.083       .  S
S826        C827   1.724       .  A
C827        C828   1.387       .  A
C828        H832   1.084   1_565  S
C833        S839   1.713       .  A
C833        C838   1.386       .  A
C833        C834   1.404       .  A
C834        C835   1.406       .  A
C834        H845   1.082       .  S
C835        C844   1.373       .  A
C835        C836   1.387       .  A
C836        S842   1.705       .  A
C836        C837   1.398       .  A
C837        C838   1.400       .  A
C837        H846   1.083       .  S
C838        C841   1.366       .  A
S839        C840   1.724       .  A
C840        C841   1.387       .  A
C841        H847   1.083   1_655  S
S842        C843   1.720       .  A
C843        C844   1.387       .  A
C844        H848   1.083       .  S
C849        S855   1.716       .  A
C849        C854   1.386       .  A
C849        C850   1.407       .  A
C850        C851   1.408       .  A
C850        H861   1.083       .  S
C851        C860   1.377       .  A
C851        C852   1.387       .  A
C852        S858   1.705       .  A
C852        C853   1.399       .  A
C853        C854   1.401       .  A
C853        H862   1.083       .  S
C854        C857   1.368       .  A
S855        C856   1.727       .  A
C856        C857   1.387       .  A
C857        H863   1.083   1_565  S
S858        C859   1.720       .  A
C859        C860   1.390       .  A
C860        H864   1.083       .  S
C865        S871   1.701   1_655  A
C865        C870   1.387       .  A
C865        C866   1.400       .  A
C866        C867   1.400       .  A
C866        H877   1.083       .  S
C867        C876   1.370       .  A
C867        C868   1.387       .  A
C868        S874   1.709       .  A
C868        C869   1.405       .  A
C869        C870   1.405       .  A
C869        H878   1.083       .  S
C870        C873   1.376       .  A
S871        C872   1.724       .  A
C872        C873   1.388   1_455  A
C873        H879   1.083       .  S
S874        C875   1.723       .  A
C875        C876   1.385       .  A
C876        H880   1.083       .  S
C881        S887   1.707       .  A
C881        C886   1.387       .  A
C881        C882   1.402   1_556  A
C882        C883   1.402       .  A
C882        H893   1.083       .  S
C883        C892   1.372       .  A
C883        C884   1.387       .  A
C884        S890   1.710       .  A
C884        C885   1.404   1_554  A
C885        C886   1.405       .  A
C885        H894   1.083       .  S
C886        C889   1.374       .  A
S887        C888   1.724       .  A
C888        C889   1.389       .  A
C889        H895   1.083       .  S
S890        C891   1.725       .  A
C891        C892   1.387       .  A
C892        H896   1.083       .  S
C897        S903   1.717       .  A
C897        C902   1.387   1_565  A
C897        C898   1.409       .  A
C898        C899   1.409   1_565  A
C898        H909   1.082       .  S
C899        C908   1.379       .  A
C899        C900   1.387       .  A
C900        S906   1.703       .  A
C900        C901   1.399       .  A
C901        C902   1.400       .  A
C901        H910   1.083       .  S
C902        C905   1.370   1_545  A
S903        C904   1.725       .  A
C904        C905   1.384       .  A
C905        H911   1.083   1_565  S
S906        C907   1.719       .  A
C907        C908   1.389       .  A
C908        H912   1.083   1_545  S
C913        S919   1.702       .  A
C913        C918   1.388       .  A
C913        C914   1.397       .  A
C914        C915   1.399       .  A
C914        H925   1.083       .  S
C915        C924   1.364       .  A
C915        C916   1.388       .  A
C916        S922   1.706       .  A
C916        C917   1.400       .  A
C917        C918   1.401       .  A
C917        H926   1.082       .  S
C918        C921   1.367       .  A
S919        C920   1.718       .  A
C920        C921   1.383       .  A
C921        H927   1.082       .  S
S922        C923   1.720       .  A
C923        C924   1.383       .  A
C924        H928   1.082       .  S
C929        S935   1.701       .  A
C929        C934   1.387       .  A
C929        C930   1.400       .  A
C930        C931   1.400       .  A
C930        H941   1.083       .  S
C931        C940   1.369       .  A
C931        C932   1.387       .  A
C932        S938   1.705       .  A
C932        C933   1.402       .  A
C933        C934   1.402       .  A
C933        H942   1.082       .  S
C934        C937   1.372       .  A
S935        C936   1.723       .  A
C936        C937   1.386       .  A
C937        H943   1.083       .  S
S938        C939   1.724       .  A
C939        C940   1.385       .  A
C940        H944   1.083       .  S
C945        S951   1.715       .  A
C945        C950   1.387       .  A
C945        C946   1.407       .  A
C946        C947   1.408   1_545  A
C946        H957   1.083       .  S
C947        C956   1.377       .  A
C947        C948   1.388       .  A
C948        S954   1.700       .  A
C948        C949   1.397       .  A
C949        C950   1.398   1_565  A
C949        H958   1.083       .  S
C950        C953   1.366       .  A
S951        C952   1.723       .  A
C952        C953   1.381       .  A
C953        H959   1.083   1_545  S
S954        C955   1.722       .  A
C955        C956   1.390       .  A
C956        H960   1.083       .  S
C961        S967   1.708       .  A
C961        C966   1.388       .  A
C961        C962   1.399       .  A
C962        C963   1.401       .  A
C962        H973   1.083       .  S
C963        C972   1.365       .  A
C963        C964   1.387       .  A
C964        S970   1.707       .  A
C964        C965   1.398       .  A
C965        C966   1.401       .  A
C965        H974   1.083       .  S
C966        C969   1.365       .  A
S967        C968   1.720       .  A
C968        C969   1.383       .  A
C969        H975   1.083       .  S
S970        C971   1.719       .  A
C971        C972   1.385       .  A
C972        H976   1.083       .  S
C977        S983   1.703       .  A
C977        C982   1.388       .  A
C977        C978   1.398       .  A
C978        C979   1.399       .  A
C978        H989   1.083       .  S
C979        C988   1.365       .  A
C979        C980   1.388       .  A
C980        S986   1.705       .  A
C980        C981   1.400       .  A
C981        C982   1.401       .  A
C981        H990   1.083       .  S
C982        C985   1.367       .  A
S983        C984   1.719       .  A
C984        C985   1.383       .  A
C985        H991   1.084       .  S
S986        C987   1.720       .  A
C987        C988   1.383       .  A
C988        H992   1.083       .  S
C993        S999   1.722       .  A
C993        C998   1.386       .  A
C993        C994   1.413   1_545  A
C994        C995   1.413       .  A
C994       H1005   1.080       .  S
C995       C1004   1.385       .  A
C995        C996   1.387   1_565  A
C996       S1002   1.695   1_545  A
C996        C997   1.396       .  A
C997        C998   1.397       .  A
C997       H1006   1.074       .  S
C998       C1001   1.366       .  A
S999       C1000   1.727       .  A
C1000      C1001   1.384       .  A
C1001      H1007   1.075       .  S
S1002      C1003   1.721       .  A
C1003      C1004   1.393       .  A
C1004      H1008   1.083       .  S
C1009      S1015   1.698       .  A
C1009      C1014   1.387       .  A
C1009      C1010   1.396       .  A
C1010      C1011   1.396       .  A
C1010      H1021   1.083       .  S
C1011      C1020   1.365       .  A
C1011      C1012   1.387       .  A
C1012      S1018   1.711       .  A
C1012      C1013   1.405       .  A
C1013      C1014   1.406       .  A
C1013      H1022   1.082       .  S
C1014      C1017   1.375       .  A
S1015      C1016   1.721       .  A
C1016      C1017   1.388       .  A
C1017      H1023   1.083       .  S
S1018      C1019   1.726       .  A
C1019      C1020   1.383       .  A
C1020      H1024   1.083       .  S
C1025      S1031   1.701       .  A
C1025      C1030   1.388       .  A
C1025      C1026   1.399       .  A
C1026      C1027   1.399       .  A
C1026      H1037   1.083       .  S
C1027      C1036   1.368       .  A
C1027      C1028   1.388       .  A
C1028      S1034   1.702       .  A
C1028      C1029   1.399       .  A
C1029      C1030   1.400       .  A
C1029      H1038   1.083       .  S
C1030      C1033   1.368       .  A
S1031      C1032   1.721       .  A
C1032      C1033   1.383       .  A
C1033      H1039   1.083       .  S
S1034      C1035   1.721       .  A
C1035      C1036   1.383       .  A
C1036      H1040   1.083       .  S
C1041      S1047   1.717       .  A
C1041      C1046   1.386   1_565  A
C1041      C1042   1.409       .  A
C1042      C1043   1.410   1_565  A
C1042      H1053   1.083       .  S
C1043      C1052   1.381       .  A
C1043      C1044   1.387       .  A
C1044      S1050   1.704       .  A
C1044      C1045   1.400       .  A
C1045      C1046   1.400       .  A
C1045      H1054   1.083       .  S
C1046      C1049   1.370   1_545  A
S1047      C1048   1.725       .  A
C1048      C1049   1.385       .  A
C1049      H1055   1.083   1_565  S
S1050      C1051   1.720       .  A
C1051      C1052   1.391       .  A
C1052      H1056   1.083   1_545  S
C1057      S1063   1.716       .  A
C1057      C1062   1.386       .  A
C1057      C1058   1.410       .  A
C1058      C1059   1.410       .  A
C1058      H1069   1.083       .  S
C1059      C1068   1.382   1_455  A
C1059      C1060   1.387   1_455  A
C1060      S1066   1.705       .  A
C1060      C1061   1.401       .  A
C1061      C1062   1.402   1_655  A
C1061      H1070   1.083       .  S
C1062      C1065   1.373       .  A
S1063      C1064   1.726       .  A
C1064      C1065   1.385       .  A
C1065      H1071   1.083   1_455  S
S1066      C1067   1.720       .  A
C1067      C1068   1.391       .  A
C1068      H1072   1.083   1_655  S
C1073      S1079   1.706       .  A
C1073      C1078   1.388       .  A
C1073      C1074   1.403       .  A
C1074      C1075   1.403       .  A
C1074      H1085   1.083       .  S
C1075      C1084   1.373       .  A
C1075      C1076   1.388       .  A
C1076      S1082   1.702       .  A
C1076      C1077   1.399       .  A
C1077      C1078   1.399       .  A
C1077      H1086   1.083       .  S
C1078      C1081   1.369       .  A
S1079      C1080   1.724       .  A
C1080      C1081   1.383       .  A
C1081      H1087   1.083       .  S
S1082      C1083   1.721       .  A
C1083      C1084   1.385       .  A
C1084      H1088   1.083       .  S
C1089      S1095   1.713       .  A
C1089      C1094   1.387       .  A
C1089      C1090   1.409       .  A
C1090      C1091   1.408       .  A
C1090      H1101   1.082       .  S
C1091      C1100   1.381       .  A
C1091      C1092   1.387       .  A
C1092      S1098   1.695       .  A
C1092      C1093   1.397       .  A
C1093      C1094   1.396       .  A
C1093      H1102   1.083       .  S
C1094      C1097   1.367       .  A
S1095      C1096   1.726       .  A
C1096      C1097   1.383       .  A
C1097      H1103   1.083       .  S
S1098      C1099   1.723   1_655  A
C1099      C1100   1.391   1_455  A
C1100      H1104   1.082       .  S
C1105      S1111   1.716       .  A
C1105      C1110   1.386       .  A
C1105      C1106   1.406       .  A
C1106      C1107   1.408       .  A
C1106      H1117   1.082       .  S
C1107      C1116   1.376       .  A
C1107      C1108   1.387       .  A
C1108      S1114   1.704       .  A
C1108      C1109   1.398       .  A
C1109      C1110   1.400       .  A
C1109      H1118   1.083       .  S
C1110      C1113   1.366       .  A
S1111      C1112   1.726       .  A
C1112      C1113   1.386       .  A
C1113      H1119   1.083   1_565  S
S1114      C1115   1.721       .  A
C1115      C1116   1.389       .  A
C1116      H1120   1.083       .  S
C1121      S1127   1.715       .  A
C1121      C1126   1.386       .  A
C1121      C1122   1.407       .  A
C1122      C1123   1.408       .  A
C1122      H1133   1.083       .  S
C1123      C1132   1.376       .  A
C1123      C1124   1.387       .  A
C1124      S1130   1.705       .  A
C1124      C1125   1.399       .  A
C1125      C1126   1.401       .  A
C1125      H1134   1.083       .  S
C1126      C1129   1.369       .  A
S1127      C1128   1.727       .  A
C1128      C1129   1.387       .  A
C1129      H1135   1.083   1_655  S
S1130      C1131   1.720       .  A
C1131      C1132   1.389       .  A
C1132      H1136   1.083       .  S
C1137      S1143   1.713       .  A
C1137      C1142   1.386       .  A
C1137      C1138   1.408       .  A
C1138      C1139   1.408       .  A
C1138      H1149   1.083       .  S
C1139      C1148   1.380       .  A
C1139      C1140   1.387       .  A
C1140      S1146   1.700   1_565  A
C1140      C1141   1.399       .  A
C1141      C1142   1.399       .  A
C1141      H1150   1.083       .  S
C1142      C1145   1.370       .  A
S1143      C1144   1.727       .  A
C1144      C1145   1.385       .  A
C1145      H1151   1.083       .  S
S1146      C1147   1.723       .  A
C1147      C1148   1.390   1_545  A
C1148      H1152   1.083       .  S
C1153      S1159   1.700       .  A
C1153      C1158   1.387       .  A
C1153      C1154   1.399       .  A
C1154      C1155   1.399       .  A
C1154      H1165   1.083       .  S
C1155      C1164   1.369       .  A
C1155      C1156   1.386       .  A
C1156      S1162   1.715       .  A
C1156      C1157   1.409       .  A
C1157      C1158   1.409       .  A
C1157      H1166   1.082       .  S
C1158      C1161   1.380       .  A
S1159      C1160   1.723       .  A
C1160      C1161   1.391       .  A
C1161      H1167   1.083       .  S
S1162      C1163   1.728       .  A
C1163      C1164   1.386       .  A
C1164      H1168   1.083       .  S
C1169      S1175   1.702       .  A
C1169      C1174   1.387       .  A
C1169      C1170   1.399       .  A
C1170      C1171   1.400       .  A
C1170      H1181   1.083       .  S
C1171      C1180   1.368   1_655  A
C1171      C1172   1.387   1_655  A
C1172      S1178   1.714       .  A
C1172      C1173   1.407       .  A
C1173      C1174   1.407   1_455  A
C1173      H1182   1.083       .  S
C1174      C1177   1.377       .  A
S1175      C1176   1.718       .  A
C1176      C1177   1.388       .  A
C1177      H1183   1.083   1_655  S
S1178      C1179   1.724       .  A
C1179      C1180   1.383       .  A
C1180      H1184   1.083   1_455  S
C1185      S1191   1.712       .  A
C1185      C1190   1.387       .  A
C1185      C1186   1.406       .  A
C1186      C1187   1.406       .  A
C1186      H1197   1.083       .  S
C1187      C1196   1.377       .  A
C1187      C1188   1.388       .  A
C1188      S1194   1.699       .  A
C1188      C1189   1.397       .  A
C1189      C1190   1.398       .  A
C1189      H1198   1.083       .  S
C1190      C1193   1.367       .  A
S1191      C1192   1.723       .  A
C1192      C1193   1.382       .  A
C1193      H1199   1.084       .  S
S1194      C1195   1.721       .  A
C1195      C1196   1.388       .  A
C1196      H1200   1.083       .  S
C1201      S1207   1.703       .  A
C1201      C1206   1.388       .  A
C1201      C1202   1.399       .  A
C1202      C1203   1.401       .  A
C1202      H1213   1.077       .  S
C1203      C1212   1.368       .  A
C1203      C1204   1.387       .  A
C1204      S1210   1.707       .  A
C1204      C1205   1.401       .  A
C1205      C1206   1.402       .  A
C1205      H1214   1.081       .  S
C1206      C1209   1.369       .  A
S1207      C1208   1.720       .  A
C1208      C1209   1.384       .  A
C1209      H1215   1.083       .  S
S1210      C1211   1.721       .  A
C1211      C1212   1.385       .  A
C1212      H1216   1.078       .  S
C1217      S1223   1.719       .  A
C1217      C1222   1.386   1_655  A
C1217      C1218   1.410       .  A
C1218      C1219   1.411   1_655  A
C1218      H1229   1.083       .  S
C1219      C1228   1.382       .  A
C1219      C1220   1.388       .  A
C1220      S1226   1.698       .  A
C1220      C1221   1.396       .  A
C1221      C1222   1.397       .  A
C1221      H1230   1.084       .  S
C1222      C1225   1.365   1_455  A
S1223      C1224   1.726       .  A
C1224      C1225   1.384       .  A
C1225      H1231   1.084   1_655  S
S1226      C1227   1.719       .  A
C1227      C1228   1.390       .  A
C1228      H1232   1.083       .  S
C1233      S1239   1.703       .  A
C1233      C1238   1.387       .  A
C1233      C1234   1.399       .  A
C1234      C1235   1.400       .  A
C1234      H1245   1.083       .  S
C1235      C1244   1.369       .  A
C1235      C1236   1.385       .  A
C1236      S1242   1.719       .  A
C1236      C1237   1.410       .  A
C1237      C1238   1.410       .  A
C1237      H1246   1.082       .  S
C1238      C1241   1.380       .  A
S1239      C1240   1.721       .  A
C1240      C1241   1.391       .  A
C1241      H1247   1.083       .  S
S1242      C1243   1.728       .  A
C1243      C1244   1.388       .  A
C1244      H1248   1.084   1_455  S
C1249      S1255   1.714       .  A
C1249      C1254   1.386       .  A
C1249      C1250   1.406       .  A
C1250      C1251   1.407       .  A
C1250      H1261   1.082       .  S
C1251      C1260   1.376       .  A
C1251      C1252   1.387       .  A
C1252      S1258   1.708       .  A
C1252      C1253   1.402       .  A
C1253      C1254   1.403       .  A
C1253      H1262   1.083       .  S
C1254      C1257   1.371   1_545  A
S1255      C1256   1.726   1_545  A
C1256      C1257   1.389       .  A
C1257      H1263   1.083       .  S
S1258      C1259   1.722       .  A
C1259      C1260   1.389       .  A
C1260      H1264   1.083       .  S
C1265      S1271   1.697       .  A
C1265      C1270   1.388       .  A
C1265      C1266   1.396       .  A
C1266      C1267   1.396       .  A
C1266      H1277   1.083       .  S
C1267      C1276   1.366       .  A
C1267      C1268   1.387       .  A
C1268      S1274   1.712       .  A
C1268      C1269   1.407       .  A
C1269      C1270   1.407       .  A
C1269      H1278   1.083       .  S
C1270      C1273   1.377       .  A
S1271      C1272   1.721   1_455  A
C1272      C1273   1.389   1_655  A
C1273      H1279   1.083       .  S
S1274      C1275   1.724       .  A
C1275      C1276   1.382       .  A
C1276      H1280   1.084       .  S
C1281      S1287   1.711       .  A
C1281      C1286   1.387       .  A
C1281      C1282   1.409       .  A
C1282      C1283   1.407       .  A
C1282      H1293   1.082       .  S
C1283      C1292   1.382       .  A
C1283      C1284   1.387       .  A
C1284      S1290   1.697   1_545  A
C1284      C1285   1.400       .  A
C1285      C1286   1.399       .  A
C1285      H1294   1.083       .  S
C1286      C1289   1.372       .  A
S1287      C1288   1.725       .  A
C1288      C1289   1.384       .  A
C1289      H1295   1.083       .  S
S1290      C1291   1.725       .  A
C1291      C1292   1.390   1_565  A
C1292      H1296   1.082       .  S
C1297      S1303   1.699       .  A
C1297      C1302   1.388       .  A
C1297      C1298   1.398       .  A
C1298      C1299   1.398       .  A
C1298      H1309   1.083       .  S
C1299      C1308   1.367       .  A
C1299      C1300   1.387       .  A
C1300      S1306   1.704       .  A
C1300      C1301   1.401       .  A
C1301      C1302   1.401       .  A
C1301      H1310   1.083       .  S
C1302      C1305   1.370       .  A
S1303      C1304   1.722       .  A
C1304      C1305   1.385       .  A
C1305      H1311   1.083       .  S
S1306      C1307   1.723       .  A
C1307      C1308   1.384       .  A
C1308      H1312   1.083       .  S
C1313      S1319   1.702       .  A
C1313      C1318   1.388   1_455  A
C1313      C1314   1.399       .  A
C1314      C1315   1.399       .  A
C1314      H1325   1.083       .  S
C1315      C1324   1.368       .  A
C1315      C1316   1.387       .  A
C1316      S1322   1.715       .  A
C1316      C1317   1.408   1_455  A
C1317      C1318   1.408       .  A
C1317      H1326   1.083       .  S
C1318      C1321   1.379       .  A
S1319      C1320   1.720   1_455  A
C1320      C1321   1.388       .  A
C1321      H1327   1.083       .  S
S1322      C1323   1.723       .  A
C1323      C1324   1.383       .  A
C1324      H1328   1.083       .  S
C1329      S1335   1.705       .  A
C1329      C1334   1.388       .  A
C1329      C1330   1.398       .  A
C1330      C1331   1.400       .  A
C1330      H1341   1.083       .  S
C1331      C1340   1.365       .  A
C1331      C1332   1.388       .  A
C1332      S1338   1.705       .  A
C1332      C1333   1.398       .  A
C1333      C1334   1.400       .  A
C1333      H1342   1.083       .  S
C1334      C1337   1.365       .  A
S1335      C1336   1.719       .  A
C1336      C1337   1.383       .  A
C1337      H1343   1.083       .  S
S1338      C1339   1.720       .  A
C1339      C1340   1.383       .  A
C1340      H1344   1.083       .  S
C1345      S1351   1.698       .  A
C1345      C1350   1.387       .  A
C1345      C1346   1.398       .  A
C1346      C1347   1.398       .  A
C1346      H1357   1.083       .  S
C1347      C1356   1.368       .  A
C1347      C1348   1.386       .  A
C1348      S1354   1.716       .  A
C1348      C1349   1.410       .  A
C1349      C1350   1.410       .  A
C1349      H1358   1.081       .  S
C1350      C1353   1.383       .  A
S1351      C1352   1.724       .  A
C1352      C1353   1.392       .  A
C1353      H1359   1.082       .  S
S1354      C1355   1.726       .  A
C1355      C1356   1.386       .  A
C1356      H1360   1.084       .  S
C1361      S1367   1.700       .  A
C1361      C1366   1.387       .  A
C1361      C1362   1.399       .  A
C1362      C1363   1.399       .  A
C1362      H1373   1.083       .  S
C1363      C1372   1.369       .  A
C1363      C1364   1.386       .  A
C1364      S1370   1.716       .  A
C1364      C1365   1.409       .  A
C1365      C1366   1.409       .  A
C1365      H1374   1.082       .  S
C1366      C1369   1.381       .  A
S1367      C1368   1.723       .  A
C1368      C1369   1.391       .  A
C1369      H1375   1.082       .  S
S1370      C1371   1.727       .  A
C1371      C1372   1.386       .  A
C1372      H1376   1.084       .  S
C1377      S1383   1.700       .  A
C1377      C1382   1.387       .  A
C1377      C1378   1.397       .  A
C1378      C1379   1.398       .  A
C1378      H1389   1.083       .  S
C1379      C1388   1.365       .  A
C1379      C1380   1.387       .  A
C1380      S1386   1.711       .  A
C1380      C1381   1.404       .  A
C1381      C1382   1.405       .  A
C1381      H1390   1.083       .  S
C1382      C1385   1.372       .  A
S1383      C1384   1.721       .  A
C1384      C1385   1.388       .  A
C1385      H1391   1.083       .  S
S1386      C1387   1.724       .  A
C1387      C1388   1.385       .  A
C1388      H1392   1.083       .  S
C1393      S1399   1.720       .  A
C1393      C1398   1.386       .  A
C1393      C1394   1.410       .  A
C1394      C1395   1.411       .  A
C1394      H1405   1.082       .  S
C1395      C1404   1.380       .  A
C1395      C1396   1.387       .  A
C1396      S1402   1.701       .  A
C1396      C1397   1.396       .  A
C1397      C1398   1.398       .  A
C1397      H1406   1.083       .  S
C1398      C1401   1.365       .  A
S1399      C1400   1.728       .  A
C1400      C1401   1.385       .  A
C1401      H1407   1.084       .  S
S1402      C1403   1.721       .  A
C1403      C1404   1.392       .  A
C1404      H1408   1.082       .  S
C1409      S1415   1.706       .  A
C1409      C1414   1.387       .  A
C1409      C1410   1.399       .  A
C1410      C1411   1.401       .  A
C1410      H1421   1.083       .  S
C1411      C1420   1.367       .  A
C1411      C1412   1.386       .  A
C1412      S1418   1.713       .  A
C1412      C1413   1.405       .  A
C1413      C1414   1.406       .  A
C1413      H1422   1.083       .  S
C1414      C1417   1.374       .  A
S1415      C1416   1.721       .  A
C1416      C1417   1.388       .  A
C1417      H1423   1.083       .  S
S1418      C1419   1.725       .  A
C1419      C1420   1.387       .  A
C1420      H1424   1.083       .  S
C1425      S1431   1.720       .  A
C1425      C1430   1.386       .  A
C1425      C1426   1.410       .  A
C1426      C1427   1.411       .  A
C1426      H1437   1.081       .  S
C1427      C1436   1.380       .  A
C1427      C1428   1.387       .  A
C1428      S1434   1.702       .  A
C1428      C1429   1.398       .  A
C1429      C1430   1.399       .  A
C1429      H1438   1.083       .  S
C1430      C1433   1.367       .  A
S1431      C1432   1.727       .  A
C1432      C1433   1.387       .  A
C1433      H1439   1.084       .  S
S1434      C1435   1.722       .  A
C1435      C1436   1.392       .  A
C1436      H1440   1.082       .  S
C1441      S1447   1.698       .  A
C1441      C1446   1.387       .  A
C1441      C1442   1.399       .  A
C1442      C1443   1.398       .  A
C1442      H1453   1.083       .  S
C1443      C1452   1.370       .  A
C1443      C1444   1.386       .  A
C1444      S1450   1.713       .  A
C1444      C1445   1.409       .  A
C1445      C1446   1.408       .  A
C1445      H1454   1.083       .  S
C1446      C1449   1.381       .  A
S1447      C1448   1.724       .  A
C1448      C1449   1.391       .  A
C1449      H1455   1.083       .  S
S1450      C1451   1.726       .  A
C1451      C1452   1.385       .  A
C1452      H1456   1.083       .  S
C1457      S1463   1.704       .  A
C1457      C1462   1.387       .  A
C1457      C1458   1.401       .  A
C1458      C1459   1.401       .  A
C1458      H1469   1.083       .  S
C1459      C1468   1.372       .  A
C1459      C1460   1.386       .  A
C1460      S1466   1.714       .  A
C1460      C1461   1.408       .  A
C1461      C1462   1.408       .  A
C1461      H1470   1.083       .  S
C1462      C1465   1.380       .  A
S1463      C1464   1.725       .  A
C1464      C1465   1.391       .  A
C1465      H1471   1.083       .  S
S1466      C1467   1.728       .  A
C1467      C1468   1.388       .  A
C1468      H1472   1.083       .  S
C1473      S1479   1.722       .  A
C1473      C1478   1.385       .  A
C1473      C1474   1.413       .  A
C1474      C1475   1.414       .  A
C1474      H1485   1.081       .  S
C1475      C1484   1.386       .  A
C1475      C1476   1.387       .  A
C1476      S1482   1.699       .  A
C1476      C1477   1.397       .  A
C1477      C1478   1.398       .  A
C1477      H1486   1.083       .  S
C1478      C1481   1.367       .  A
S1479      C1480   1.730       .  A
C1480      C1481   1.386       .  A
C1481      H1487   1.084       .  S
S1482      C1483   1.723       .  A
C1483      C1484   1.395       .  A
C1484      H1488   1.081       .  S
C1489      S1495   1.714       .  A
C1489      C1494   1.386       .  A
C1489      C1490   1.406       .  A
C1490      C1491   1.407       .  A
C1490      H1501   1.082       .  S
C1491      C1500   1.375       .  A
C1491      C1492   1.387       .  A
C1492      S1498   1.703       .  A
C1492      C1493   1.398       .  A
C1493      C1494   1.399       .  A
C1493      H1502   1.083       .  S
C1494      C1497   1.366       .  A
S1495      C1496   1.725       .  A
C1496      C1497   1.386       .  A
C1497      H1503   1.083       .  S
S1498      C1499   1.721       .  A
C1499      C1500   1.388       .  A
C1500      H1504   1.083       .  S
C1505      S1511   1.720       .  A
C1505      C1510   1.385       .  A
C1505      C1506   1.412       .  A
C1506      C1507   1.412       .  A
C1506      H1517   1.082       .  S
C1507      C1516   1.384       .  A
C1507      C1508   1.387       .  A
C1508      S1514   1.699       .  A
C1508      C1509   1.398       .  A
C1509      C1510   1.398       .  A
C1509      H1518   1.083       .  S
C1510      C1513   1.369       .  A
S1511      C1512   1.729       .  A
C1512      C1513   1.387       .  A
C1513      H1519   1.083       .  S
S1514      C1515   1.723       .  A
C1515      C1516   1.394       .  A
C1516      H1520   1.082       .  S
C1521      S1527   1.714       .  A
C1521      C1526   1.386       .  A
C1521      C1522   1.406       .  A
C1522      C1523   1.407       .  A
C1522      H1533   1.082       .  S
C1523      C1532   1.375       .  A
C1523      C1524   1.387       .  A
C1524      S1530   1.708       .  A
C1524      C1525   1.402       .  A
C1525      C1526   1.403       .  A
C1525      H1534   1.083       .  S
C1526      C1529   1.371       .  A
S1527      C1528   1.726       .  A
C1528      C1529   1.389       .  A
C1529      H1535   1.083       .  S
S1530      C1531   1.721       .  A
C1531      C1532   1.388       .  A
C1532      H1536   1.083       .  S
C1537      S1543   1.704       .  A
C1537      C1542   1.387       .  A
C1537      C1538   1.401       .  A
C1538      C1539   1.401       .  A
C1538      H1549   1.083       .  S
C1539      C1548   1.371       .  A
C1539      C1540   1.386       .  A
C1540      S1546   1.711       .  A
C1540      C1541   1.405       .  A
C1541      C1542   1.405       .  A
C1541      H1550   1.083       .  S
C1542      C1545   1.375       .  A
S1543      C1544   1.724       .  A
C1544      C1545   1.389       .  A
C1545      H1551   1.083       .  S
S1546      C1547   1.726       .  A
C1547      C1548   1.387       .  A
C1548      H1552   1.083       .  S
C1553      S1559   1.721       .  A
C1553      C1558   1.386       .  A
C1553      C1554   1.413       .  A
C1554      C1555   1.413       .  A
C1554      H1565   1.082       .  S
C1555      C1564   1.384       .  A
C1555      C1556   1.387       .  A
C1556      S1562   1.699       .  A
C1556      C1557   1.396       .  A
C1557      C1558   1.397       .  A
C1557      H1566   1.083       .  S
C1558      C1561   1.367       .  A
S1559      C1560   1.730       .  A
C1560      C1561   1.384       .  A
C1561      H1567   1.084       .  S
S1562      C1563   1.721       .  A
C1563      C1564   1.394       .  A
C1564      H1568   1.082       .  S
C1569      S1575   1.716       .  A
C1569      C1574   1.386       .  A
C1569      C1570   1.406       .  A
C1570      C1571   1.408       .  A
C1570      H1581   1.083       .  S
C1571      C1580   1.376       .  A
C1571      C1572   1.387       .  A
C1572      S1578   1.706       .  A
C1572      C1573   1.400       .  A
C1573      C1574   1.401       .  A
C1573      H1582   1.083       .  S
C1574      C1577   1.368       .  A
S1575      C1576   1.725       .  A
C1576      C1577   1.387       .  A
C1577      H1583   1.084       .  S
S1578      C1579   1.722       .  A
C1579      C1580   1.390       .  A
C1580      H1584   1.083       .  S
C1585      S1591   1.716       .  A
C1585      C1590   1.386       .  A
C1585      C1586   1.407       .  A
C1586      C1587   1.408       .  A
C1586      H1597   1.082       .  S
C1587      C1596   1.378       .  A
C1587      C1588   1.387       .  A
C1588      S1594   1.706       .  A
C1588      C1589   1.400       .  A
C1589      C1590   1.401       .  A
C1589      H1598   1.083       .  S
C1590      C1593   1.369       .  A
S1591      C1592   1.726       .  A
C1592      C1593   1.389       .  A
C1593      H1599   1.083       .  S
S1594      C1595   1.721       .  A
C1595      C1596   1.390       .  A
C1596      H1600   1.083       .  S
C1601      S1607   1.721       .  A
C1601      C1606   1.385       .  A
C1601      C1602   1.413       .  A
C1602      C1603   1.413       .  A
C1602      H1613   1.082       .  S
C1603      C1612   1.385       .  A
C1603      C1604   1.387       .  A
C1604      S1610   1.703       .  A
C1604      C1605   1.400       .  A
C1605      C1606   1.401       .  A
C1605      H1614   1.083       .  S
C1606      C1609   1.371       .  A
S1607      C1608   1.730       .  A
C1608      C1609   1.389       .  A
C1609      H1615   1.084       .  S
S1610      C1611   1.724       .  A
C1611      C1612   1.395       .  A
C1612      H1616   1.082       .  S
C1617      S1623   1.718       .  A
C1617      C1622   1.386       .  A
C1617      C1618   1.407       .  A
C1618      C1619   1.409       .  A
C1618      H1629   1.083       .  S
C1619      C1628   1.376       .  A
C1619      C1620   1.387       .  A
C1620      S1626   1.705       .  A
C1620      C1621   1.398       .  A
C1621      C1622   1.400       .  A
C1621      H1630   1.083       .  S
C1622      C1625   1.366       .  A
S1623      C1624   1.726       .  A
C1624      C1625   1.387       .  A
C1625      H1631   1.084       .  S
S1626      C1627   1.720       .  A
C1627      C1628   1.390       .  A
C1628      H1632   1.083       .  S
C1633      S1639   1.705       .  A
C1633      C1638   1.387       .  A
C1633      C1634   1.399       .  A
C1634      C1635   1.400       .  A
C1634      H1645   1.083       .  S
C1635      C1644   1.366       .  A
C1635      C1636   1.386       .  A
C1636      S1642   1.716       .  A
C1636      C1637   1.406       .  A
C1637      C1638   1.408       .  A
C1637      H1646   1.082       .  S
C1638      C1641   1.375       .  A
S1639      C1640   1.722       .  A
C1640      C1641   1.388       .  A
C1641      H1647   1.083       .  S
S1642      C1643   1.726       .  A
C1643      C1644   1.386       .  A
C1644      H1648   1.083       .  S
C1649      S1655   1.706       .  A
C1649      C1654   1.387       .  A
C1649      C1650   1.402       .  A
C1650      C1651   1.402       .  A
C1650      H1661   1.083       .  S
C1651      C1660   1.371       .  A
C1651      C1652   1.387       .  A
C1652      S1658   1.705       .  A
C1652      C1653   1.401       .  A
C1653      C1654   1.401       .  A
C1653      H1662   1.083       .  S
C1654      C1657   1.370       .  A
S1655      C1656   1.724       .  A
C1656      C1657   1.386       .  A
C1657      H1663   1.083       .  S
S1658      C1659   1.723       .  A
C1659      C1660   1.387       .  A
C1660      H1664   1.083       .  S
C1665      S1671   1.719       .  A
C1665      C1670   1.386       .  A
C1665      C1666   1.411       .  A
C1666      C1667   1.411       .  A
C1666      H1677   1.081       .  S
C1667      C1676   1.383       .  A
C1667      C1668   1.387       .  A
C1668      S1674   1.698       .  A
C1668      C1669   1.397       .  A
C1669      C1670   1.398       .  A
C1669      H1678   1.083       .  S
C1670      C1673   1.367       .  A
S1671      C1672   1.728       .  A
C1672      C1673   1.386       .  A
C1673      H1679   1.083       .  S
S1674      C1675   1.723       .  A
C1675      C1676   1.392       .  A
C1676      H1680   1.082       .  S
C1681      S1687   1.708       .  A
C1681      C1686   1.387       .  A
C1681      C1682   1.403       .  A
C1682      C1683   1.404       .  A
C1682      H1693   1.083       .  S
C1683      C1692   1.374       .  A
C1683      C1684   1.386       .  A
C1684      S1690   1.714       .  A
C1684      C1685   1.407       .  A
C1685      C1686   1.407       .  A
C1685      H1694   1.083       .  S
C1686      C1689   1.378       .  A
S1687      C1688   1.722       .  A
C1688      C1689   1.388       .  A
C1689      H1695   1.083       .  S
S1690      C1691   1.723       .  A
C1691      C1692   1.388       .  A
C1692      H1696   1.083       .  S
C1697      S1703   1.705       .  A
C1697      C1702   1.388       .  A
C1697      C1698   1.400       .  A
C1698      C1699   1.401       .  A
C1698      H1709   1.083       .  S
C1699      C1708   1.370       .  A
C1699      C1700   1.388       .  A
C1700      S1706   1.702       .  A
C1700      C1701   1.399       .  A
C1701      C1702   1.399       .  A
C1701      H1710   1.083       .  S
C1702      C1705   1.367       .  A
S1703      C1704   1.722       .  A
C1704      C1705   1.383       .  A
C1705      H1711   1.084       .  S
S1706      C1707   1.721       .  A
C1707      C1708   1.384       .  A
C1708      H1712   1.083       .  S
C1713      S1719   1.701       .  A
C1713      C1718   1.387       .  A
C1713      C1714   1.398       .  A
C1714      C1715   1.399       .  A
C1714      H1725   1.083       .  S
C1715      C1724   1.368       .  A
C1715      C1716   1.386       .  A
C1716      S1722   1.716       .  A
C1716      C1717   1.408       .  A
C1717      C1718   1.409       .  A
C1717      H1726   1.082       .  S
C1718      C1721   1.379       .  A
S1719      C1720   1.722       .  A
C1720      C1721   1.390       .  A
C1721      H1727   1.082       .  S
S1722      C1723   1.726       .  A
C1723      C1724   1.385       .  A
C1724      H1728   1.083       .  S
C1729      S1735   1.711       .  A
C1729      C1734   1.386       .  A
C1729      C1730   1.405   1_554  A
C1730      C1731   1.406       .  A
C1730      H1741   1.082       .  S
C1731      C1740   1.376       .  A
C1731      C1732   1.387       .  A
C1732      S1738   1.706       .  A
C1732      C1733   1.402       .  A
C1733      C1734   1.402   1_556  A
C1733      H1742   1.083   1_556  S
C1734      C1737   1.372       .  A
S1735      C1736   1.726       .  A
C1736      C1737   1.387       .  A
C1737      H1743   1.083       .  S
S1738      C1739   1.724       .  A
C1739      C1740   1.390       .  A
C1740      H1744   1.083       .  S
C1745      S1751   1.709       .  A
C1745      C1750   1.387       .  A
C1745      C1746   1.404       .  A
C1746      C1747   1.404       .  A
C1746      H1757   1.083       .  S
C1747      C1756   1.374       .  A
C1747      C1748   1.387       .  A
C1748      S1754   1.711       .  A
C1748      C1749   1.404       .  A
C1749      C1750   1.405       .  A
C1749      H1758   1.083       .  S
C1750      C1753   1.375       .  A
S1751      C1752   1.721       .  A
C1752      C1753   1.386       .  A
C1753      H1759   1.083       .  S
S1754      C1755   1.722       .  A
C1755      C1756   1.387       .  A
C1756      H1760   1.083       .  S
C1761      S1767   1.705       .  A
C1761      C1766   1.388       .  A
C1761      C1762   1.399       .  A
C1762      C1763   1.400       .  A
C1762      H1773   1.084       .  S
C1763      C1772   1.366       .  A
C1763      C1764   1.388       .  A
C1764      S1770   1.705       .  A
C1764      C1765   1.399       .  A
C1765      C1766   1.400       .  A
C1765      H1774   1.084       .  S
C1766      C1769   1.367       .  A
S1767      C1768   1.719       .  A
C1768      C1769   1.384       .  A
C1769      H1775   1.083       .  S
S1770      C1771   1.720       .  A
C1771      C1772   1.383       .  A
C1772      H1776   1.084       .  S
C1777      S1783   1.702       .  A
C1777      C1782   1.387       .  A
C1777      C1778   1.400       .  A
C1778      C1779   1.400       .  A
C1778      H1789   1.083       .  S
C1779      C1788   1.370       .  A
C1779      C1780   1.386       .  A
C1780      S1786   1.715       .  A
C1780      C1781   1.408       .  A
C1781      C1782   1.408       .  A
C1781      H1790   1.082       .  S
C1782      C1785   1.379       .  A
S1783      C1784   1.723       .  A
C1784      C1785   1.390       .  A
C1785      H1791   1.082       .  S
S1786      C1787   1.725       .  A
C1787      C1788   1.387       .  A
C1788      H1792   1.084       .  S
C1793      S1799   1.707       .  A
C1793      C1798   1.387       .  A
C1793      C1794   1.400       .  A
C1794      C1795   1.401       .  A
C1794      H1805   1.082       .  S
C1795      C1804   1.367       .  A
C1795      C1796   1.388       .  A
C1796      S1802   1.705       .  A
C1796      C1797   1.399       .  A
C1797      C1798   1.400       .  A
C1797      H1806   1.080       .  S
C1798      C1801   1.366       .  A
S1799      C1800   1.720       .  A
C1800      C1801   1.385       .  A
C1801      H1807   1.076       .  S
S1802      C1803   1.719       .  A
C1803      C1804   1.384       .  A
C1804      H1808   1.083       .  S
C1809      S1815   1.714       .  A
C1809      C1814   1.387       .  A
C1809      C1810   1.407       .  A
C1810      C1811   1.407       .  A
C1810      H1821   1.078       .  S
C1811      C1820   1.378       .  A
C1811      C1812   1.388       .  A
C1812      S1818   1.701       .  A
C1812      C1813   1.399       .  A
C1813      C1814   1.399       .  A
C1813      H1822   1.083       .  S
C1814      C1817   1.368       .  A
S1815      C1816   1.723       .  A
C1816      C1817   1.383       .  A
C1817      H1823   1.084       .  S
S1818      C1819   1.720       .  A
C1819      C1820   1.388       .  A
C1820      H1824   1.078       .  S
C1825      S1831   1.713       .  A
C1825      C1830   1.386       .  A
C1825      C1826   1.405       .  A
C1826      C1827   1.406       .  A
C1826      H1837   1.083       .  S
C1827      C1836   1.374       .  A
C1827      C1828   1.387       .  A
C1828      S1834   1.706       .  A
C1828      C1829   1.399       .  A
C1829      C1830   1.401       .  A
C1829      H1838   1.083       .  S
C1830      C1833   1.368       .  A
S1831      C1832   1.726       .  A
C1832      C1833   1.387       .  A
C1833      H1839   1.083       .  S
S1834      C1835   1.720       .  A
C1835      C1836   1.388       .  A
C1836      H1840   1.083       .  S
C1841      S1847   1.719       .  A
C1841      C1846   1.386       .  A
C1841      C1842   1.413       .  A
C1842      C1843   1.412       .  A
C1842      H1853   1.082       .  S
C1843      C1852   1.385       .  A
C1843      C1844   1.387       .  A
C1844      S1850   1.700       .  A
C1844      C1845   1.399       .  A
C1845      C1846   1.399       .  A
C1845      H1854   1.083       .  S
C1846      C1849   1.371       .  A
S1847      C1848   1.729       .  A
C1848      C1849   1.387       .  A
C1849      H1855   1.083       .  S
S1850      C1851   1.723       .  A
C1851      C1852   1.394       .  A
C1852      H1856   1.082       .  S
C1857      S1863   1.700       .  A
C1857      C1862   1.387       .  A
C1857      C1858   1.400       .  A
C1858      C1859   1.399       .  A
C1858      H1869   1.083       .  S
C1859      C1868   1.370       .  A
C1859      C1860   1.387       .  A
C1860      S1866   1.711       .  A
C1860      C1861   1.407       .  A
C1861      C1862   1.406       .  A
C1861      H1870   1.083       .  S
C1862      C1865   1.379       .  A
S1863      C1864   1.725       .  A
C1864      C1865   1.389       .  A
C1865      H1871   1.082       .  S
S1866      C1867   1.725       .  A
C1867      C1868   1.385       .  A
C1868      H1872   1.083       .  S
C1873      S1879   1.708       .  A
C1873      C1878   1.387       .  A
C1873      C1874   1.404   1_554  A
C1874      C1875   1.404       .  A
C1874      H1885   1.083       .  S
C1875      C1884   1.373       .  A
C1875      C1876   1.387       .  A
C1876      S1882   1.707       .  A
C1876      C1877   1.402       .  A
C1877      C1878   1.403   1_556  A
C1877      H1886   1.083   1_556  S
C1878      C1881   1.373       .  A
S1879      C1880   1.725       .  A
C1880      C1881   1.388       .  A
C1881      H1887   1.083       .  S
S1882      C1883   1.724       .  A
C1883      C1884   1.388       .  A
C1884      H1888   1.083       .  S
C1889      S1895   1.704       .  A
C1889      C1894   1.388       .  A
C1889      C1890   1.398       .  A
C1890      C1891   1.400       .  A
C1890      H1901   1.082       .  S
C1891      C1900   1.365       .  A
C1891      C1892   1.388       .  A
C1892      S1898   1.701       .  A
C1892      C1893   1.396       .  A
C1893      C1894   1.398       .  A
C1893      H1902   1.083       .  S
C1894      C1897   1.363       .  A
S1895      C1896   1.719       .  A
C1896      C1897   1.382       .  A
C1897      H1903   1.084       .  S
S1898      C1899   1.719       .  A
C1899      C1900   1.382       .  A
C1900      H1904   1.083       .  S
C1905      S1911   1.719       .  A
C1905      C1910   1.386       .  A
C1905      C1906   1.411       .  A
C1906      C1907   1.411       .  A
C1906      H1917   1.082       .  S
C1907      C1916   1.383       .  A
C1907      C1908   1.388       .  A
C1908      S1914   1.699       .  A
C1908      C1909   1.398       .  A
C1909      C1910   1.398       .  A
C1909      H1918   1.083       .  S
C1910      C1913   1.368       .  A
S1911      C1912   1.726       .  A
C1912      C1913   1.384       .  A
C1913      H1919   1.084       .  S
S1914      C1915   1.720       .  A
C1915      C1916   1.391       .  A
C1916      H1920   1.082       .  S
C1921      S1927   1.721       .  A
C1921      C1926   1.385       .  A
C1921      C1922   1.411       .  A
C1922      C1923   1.412       .  A
C1922      H1933   1.081       .  S
C1923      C1932   1.382       .  A
C1923      C1924   1.387       .  A
C1924      S1930   1.700       .  A
C1924      C1925   1.396       .  A
C1925      C1926   1.398       .  A
C1925      H1934   1.083       .  S
C1926      C1929   1.366       .  A
S1927      C1928   1.729       .  A
C1928      C1929   1.385       .  A
C1929      H1935   1.084       .  S
S1930      C1931   1.721       .  A
C1931      C1932   1.393       .  A
C1932      H1936   1.082       .  S
C1937      S1943   1.704       .  A
C1937      C1942   1.388       .  A
C1937      C1938   1.399       .  A
C1938      C1939   1.400       .  A
C1938      H1949   1.083       .  S
C1939      C1948   1.368       .  A
C1939      C1940   1.388       .  A
C1940      S1946   1.706       .  A
C1940      C1941   1.400       .  A
C1941      C1942   1.401       .  A
C1941      H1950   1.083       .  S
C1942      C1945   1.369       .  A
S1943      C1944   1.721       .  A
C1944      C1945   1.384       .  A
C1945      H1951   1.083       .  S
S1946      C1947   1.722       .  A
C1947      C1948   1.383       .  A
C1948      H1952   1.083       .  S
C1953      S1959   1.714       .  A
C1953      C1958   1.387       .  A
C1953      C1954   1.407       .  A
C1954      C1955   1.408       .  A
C1954      H1965   1.083       .  S
C1955      C1964   1.379       .  A
C1955      C1956   1.387       .  A
C1956      S1962   1.703       .  A
C1956      C1957   1.401       .  A
C1957      C1958   1.401       .  A
C1957      H1966   1.083       .  S
C1958      C1961   1.371       .  A
S1959      C1960   1.723       .  A
C1960      C1961   1.385       .  A
C1961      H1967   1.083       .  S
S1962      C1963   1.720       .  A
C1963      C1964   1.389       .  A
C1964      H1968   1.083       .  S
C1969      S1975   1.709       .  A
C1969      C1974   1.387       .  A
C1969      C1970   1.405       .  A
C1970      C1971   1.405       .  A
C1970      H1981   1.083       .  S
C1971      C1980   1.377       .  A
C1971      C1972   1.387       .  A
C1972      S1978   1.704       .  A
C1972      C1973   1.403       .  A
C1973      C1974   1.403       .  A
C1973      H1982   1.083       .  S
C1974      C1977   1.374       .  A
S1975      C1976   1.724       .  A
C1976      C1977   1.387       .  A
C1977      H1983   1.083       .  S
S1978      C1979   1.726       .  A
C1979      C1980   1.388       .  A
C1980      H1984   1.083       .  S
C1985      S1991   1.700       .  A
C1985      C1990   1.387       .  A
C1985      C1986   1.397       .  A
C1986      C1987   1.398       .  A
C1986      H1997   1.083       .  S
C1987      C1996   1.367       .  A
C1987      C1988   1.385       .  A
C1988      S1994   1.724       .  A
C1988      C1989   1.414       .  A
C1989      C1990   1.415       .  A
C1989      H1998   1.081       .  S
C1990      C1993   1.386       .  A
S1991      C1992   1.722       .  A
C1992      C1993   1.396       .  A
C1993      H1999   1.082       .  S
S1994      C1995   1.730       .  A
C1995      C1996   1.387       .  A
C1996      H2000   1.084       .  S
C2001      S2007   1.705       .  A
C2001      C2006   1.387       .  A
C2001      C2002   1.400       .  A
C2002      C2003   1.401       .  A
C2002      H2013   1.083       .  S
C2003      C2012   1.368       .  A
C2003      C2004   1.386       .  A
C2004      S2010   1.714       .  A
C2004      C2005   1.406       .  A
C2005      C2006   1.407       .  A
C2005      H2014   1.082       .  S
C2006      C2009   1.376       .  A
S2007      C2008   1.721       .  A
C2008      C2009   1.388       .  A
C2009      H2015   1.083       .  S
S2010      C2011   1.725       .  A
C2011      C2012   1.388       .  A
C2012      H2016   1.083       .  S
C2017      S2023   1.709       .  A
C2017      C2022   1.387       .  A
C2017      C2018   1.403       .  A
C2018      C2019   1.404   1_556  A
C2018      H2029   1.082   1_556  S
C2019      C2028   1.373       .  A
C2019      C2020   1.387       .  A
C2020      S2026   1.706       .  A
C2020      C2021   1.402   1_554  A
C2021      C2022   1.402       .  A
C2021      H2030   1.083       .  S
C2022      C2025   1.371       .  A
S2023      C2024   1.724       .  A
C2024      C2025   1.388       .  A
C2025      H2031   1.083       .  S
S2026      C2027   1.725       .  A
C2027      C2028   1.387       .  A
C2028      H2032   1.083       .  S
C2033      S2039   1.709       .  A
C2033      C2038   1.387       .  A
C2033      C2034   1.401       .  A
C2034      C2035   1.402       .  A
C2034      H2045   1.083       .  S
C2035      C2044   1.368       .  A
C2035      C2036   1.387       .  A
C2036      S2042   1.706       .  A
C2036      C2037   1.399       .  A
C2037      C2038   1.400       .  A
C2037      H2046   1.083       .  S
C2038      C2041   1.366       .  A
S2039      C2040   1.721       .  A
C2040      C2041   1.384       .  A
C2041      H2047   1.083       .  S
S2042      C2043   1.720       .  A
C2043      C2044   1.386       .  A
C2044      H2048   1.083       .  S
C2049      S2055   1.721       .  A
C2049      C2054   1.386       .  A
C2049      C2050   1.410       .  A
C2050      C2051   1.411       .  A
C2050      H2061   1.083       .  S
C2051      C2060   1.381       .  A
C2051      C2052   1.387       .  A
C2052      S2058   1.704       .  A
C2052      C2053   1.399       .  A
C2053      C2054   1.400       .  A
C2053      H2062   1.083       .  S
C2054      C2057   1.367       .  A
S2055      C2056   1.726       .  A
C2056      C2057   1.386       .  A
C2057      H2063   1.084       .  S
S2058      C2059   1.720       .  A
C2059      C2060   1.390       .  A
C2060      H2064   1.083       .  S
C2065      S2071   1.704       .  A
C2065      C2070   1.387       .  A
C2065      C2066   1.403       .  A
C2066      C2067   1.403       .  A
C2066      H2077   1.083       .  S
C2067      C2076   1.374       .  A
C2067      C2068   1.387       .  A
C2068      S2074   1.710       .  A
C2068      C2069   1.406       .  A
C2069      C2070   1.405       .  A
C2069      H2078   1.082       .  S
C2070      C2073   1.379       .  A
S2071      C2072   1.725       .  A
C2072      C2073   1.388       .  A
C2073      H2079   1.083       .  S
S2074      C2075   1.722       .  A
C2075      C2076   1.386       .  A
C2076      H2080   1.083       .  S
C2081      S2087   1.711       .  A
C2081      C2086   1.387       .  A
C2081      C2082   1.405       .  A
C2082      C2083   1.405       .  A
C2082      H2093   1.083       .  S
C2083      C2092   1.375       .  A
C2083      C2084   1.388       .  A
C2084      S2090   1.706       .  A
C2084      C2085   1.401       .  A
C2085      C2086   1.402       .  A
C2085      H2094   1.083       .  S
C2086      C2089   1.370       .  A
S2087      C2088   1.722       .  A
C2088      C2089   1.385       .  A
C2089      H2095   1.083       .  S
S2090      C2091   1.719       .  A
C2091      C2092   1.386       .  A
C2092      H2096   1.083       .  S
C2097      S2103   1.704       .  A
C2097      C2102   1.388       .  A
C2097      C2098   1.399       .  A
C2098      C2099   1.400       .  A
C2098      H2109   1.083       .  S
C2099      C2108   1.366       .  A
C2099      C2100   1.387       .  A
C2100      S2106   1.708       .  A
C2100      C2101   1.400       .  A
C2101      C2102   1.402       .  A
C2101      H2110   1.083       .  S
C2102      C2105   1.369       .  A
S2103      C2104   1.721       .  A
C2104      C2105   1.384       .  A
C2105      H2111   1.083       .  S
S2106      C2107   1.722       .  A
C2107      C2108   1.384       .  A
C2108      H2112   1.084       .  S
C2113      S2119   1.705       .  A
C2113      C2118   1.387       .  A
C2113      C2114   1.402       .  A
C2114      C2115   1.402       .  A
C2114      H2125   1.083       .  S
C2115      C2124   1.372       .  A
C2115      C2116   1.387       .  A
C2116      S2122   1.713       .  A
C2116      C2117   1.406       .  A
C2117      C2118   1.407       .  A
C2117      H2126   1.082       .  S
C2118      C2121   1.378       .  A
S2119      C2120   1.725       .  A
C2120      C2121   1.390       .  A
C2121      H2127   1.082       .  S
S2122      C2123   1.725       .  A
C2123      C2124   1.386       .  A
C2124      H2128   1.083       .  S
C2129      S2135   1.713       .  A
C2129      C2134   1.387       .  A
C2129      C2130   1.408       .  A
C2130      C2131   1.408       .  A
C2130      H2141   1.083       .  S
C2131      C2140   1.380       .  A
C2131      C2132   1.387       .  A
C2132      S2138   1.696       .  A
C2132      C2133   1.397       .  A
C2133      C2134   1.397       .  A
C2133      H2142   1.083       .  S
C2134      C2137   1.367       .  A
S2135      C2136   1.726       .  A
C2136      C2137   1.383       .  A
C2137      H2143   1.083       .  S
S2138      C2139   1.722       .  A
C2139      C2140   1.390       .  A
C2140      H2144   1.083       .  S
C2145      S2151   1.720       .  A
C2145      C2150   1.386       .  A
C2145      C2146   1.412       .  A
C2146      C2147   1.412       .  A
C2146      H2157   1.081       .  S
C2147      C2156   1.383       .  A
C2147      C2148   1.387       .  A
C2148      S2154   1.700       .  A
C2148      C2149   1.398       .  A
C2149      C2150   1.398       .  A
C2149      H2158   1.083       .  S
C2150      C2153   1.367       .  A
S2151      C2152   1.729       .  A
C2152      C2153   1.386       .  A
C2153      H2159   1.084       .  S
S2154      C2155   1.723       .  A
C2155      C2156   1.393       .  A
C2156      H2160   1.082       .  S
C2161      S2167   1.712       .  A
C2161      C2166   1.387       .  A
C2161      C2162   1.407       .  A
C2162      C2163   1.407       .  A
C2162      H2173   1.083       .  S
C2163      C2172   1.378       .  A
C2163      C2164   1.387       .  A
C2164      S2170   1.700       .  A
C2164      C2165   1.399       .  A
C2165      C2166   1.399       .  A
C2165      H2174   1.083       .  S
C2166      C2169   1.369       .  A
S2167      C2168   1.725       .  A
C2168      C2169   1.384       .  A
C2169      H2175   1.083       .  S
S2170      C2171   1.723       .  A
C2171      C2172   1.390       .  A
C2172      H2176   1.083       .  S
C2177      S2183   1.706       .  A
C2177      C2182   1.387       .  A
C2177      C2178   1.400       .  A
C2178      C2179   1.401       .  A
C2178      H2189   1.083       .  S
C2179      C2188   1.369       .  A
C2179      C2180   1.386       .  A
C2180      S2186   1.716       .  A
C2180      C2181   1.407       .  A
C2181      C2182   1.408       .  A
C2181      H2190   1.082       .  S
C2182      C2185   1.377       .  A
S2183      C2184   1.721       .  A
C2184      C2185   1.389       .  A
C2185      H2191   1.083       .  S
S2186      C2187   1.727       .  A
C2187      C2188   1.388       .  A
C2188      H2192   1.083       .  S
C2193      S2199   1.714       .  A
C2193      C2198   1.386       .  A
C2193      C2194   1.407       .  A
C2194      C2195   1.407   1_556  A
C2194      H2205   1.082   1_556  S
C2195      C2204   1.377       .  A
C2195      C2196   1.387       .  A
C2196      S2202   1.707       .  A
C2196      C2197   1.402   1_554  A
C2197      C2198   1.402       .  A
C2197      H2206   1.083       .  S
C2198      C2201   1.371       .  A
S2199      C2200   1.726       .  A
C2200      C2201   1.388       .  A
C2201      H2207   1.083       .  S
S2202      C2203   1.724       .  A
C2203      C2204   1.391       .  A
C2204      H2208   1.083       .  S
C2209      S2215   1.717       .  A
C2209      C2214   1.386       .  A
C2209      C2210   1.410       .  A
C2210      C2211   1.410       .  A
C2210      H2221   1.083       .  S
C2211      C2220   1.382       .  A
C2211      C2212   1.387       .  A
C2212      S2218   1.704       .  A
C2212      C2213   1.401       .  A
C2213      C2214   1.401       .  A
C2213      H2222   1.083       .  S
C2214      C2217   1.372       .  A
S2215      C2216   1.725       .  A
C2216      C2217   1.386       .  A
C2217      H2223   1.083       .  S
S2218      C2219   1.721       .  A
C2219      C2220   1.391       .  A
C2220      H2224   1.083       .  S
C2225      S2231   1.705       .  A
C2225      C2230   1.388       .  A
C2225      C2226   1.401       .  A
C2226      C2227   1.401       .  A
C2226      H2237   1.083       .  S
C2227      C2236   1.371       .  A
C2227      C2228   1.388       .  A
C2228      S2234   1.705       .  A
C2228      C2229   1.402       .  A
C2229      C2230   1.402       .  A
C2229      H2238   1.083       .  S
C2230      C2233   1.371       .  A
S2231      C2232   1.722       .  A
C2232      C2233   1.385       .  A
C2233      H2239   1.083       .  S
S2234      C2235   1.723       .  A
C2235      C2236   1.385       .  A
C2236      H2240   1.083       .  S
