geometry optimzed in LAMMPS
_audit_creation_date              2020-12-01 
_audit_creation_method            'lammps2cif' 
_symmetry_space_group_name_H-M    'P1' 
_symmetry_Int_Tables_number       1 
_symmetry_cell_setting            triclinic 
loop_ 
_symmetry_equiv_pos_as_xyz 
  x,y,z 
_cell_length_a                    61.52439773 
_cell_length_b                    61.54604012606177 
_cell_length_c                    29.76029509642224 
_cell_angle_alpha                 90.0941084083485 
_cell_angle_beta                  89.85373394558228 
_cell_angle_gamma                 120.55669050808498 
loop_ 
_atom_site_label 
_atom_site_type_symbol 
_atom_site_fract_x 
_atom_site_fract_y 
_atom_site_fract_z 
_atom_site_charge 
N1          N  0.83573627  0.45569695  0.94694475    -0.26500
N2          N  0.85961134  0.46796755  0.95974166    -0.34400
C3          C  0.86248390  0.45592331  0.99471927     0.01800
C4          C  0.83936484  0.43494598  0.00457922     0.07900
C5          C  0.82276520  0.43530120  0.97351999    -0.05200
H6          H  0.88035551  0.46145605  0.01067422     0.08500
H7          H  0.80288024  0.42149492  0.96993337     0.09700
Cu8        Cu  0.88809112  0.49877475  0.92634254     0.44200
Cu9        Cu  0.82316674  0.46723932  0.89208292     0.42000
Cu10       Cu  0.87417497  0.51593173  0.82104071     0.43900
N11         N  0.91555785  0.52524415  0.88434039    -0.33900
N12         N  0.91056911  0.53131170  0.84474275    -0.28100
C13         C  0.93241068  0.54683411  0.82351839    -0.04200
C14         C  0.95207055  0.55054699  0.85118336     0.08000
C15         C  0.94067419  0.53666730  0.88951737     0.01800
H16         H  0.93385129  0.55370327  0.78964283     0.09400
H17         H  0.94991455  0.53399056  0.91804446     0.08500
N18         N  0.83604894  0.49981740  0.80862905    -0.35300
N19         N  0.81765345  0.48312206  0.83463831    -0.27500
C20         C  0.79544079  0.47861048  0.81787859    -0.02800
C21         C  0.80012466  0.49303974  0.77944648     0.05900
C22         C  0.82605502  0.50605037  0.77454438     0.03900
H23         H  0.77726812  0.46612224  0.83309055     0.09100
H24         H  0.83699575  0.51944191  0.74842922     0.07900
N25         N  0.64898799  0.46334017  0.50577596    -0.26500
N26         N  0.63389068  0.47260948  0.50119428    -0.34400
C27         C  0.61719204  0.46005043  0.46855723     0.01800
C28         C  0.62191216  0.44198202  0.45150914     0.07900
C29         C  0.64217158  0.44445883  0.47599346    -0.05200
H30         H  0.60240600  0.46360743  0.45835680     0.08500
H31         H  0.65126206  0.43339098  0.47250309     0.09700
Cu32       Cu  0.63580531  0.50170507  0.53870791     0.44200
Cu33       Cu  0.67755276  0.47695432  0.55304554     0.42000
Cu34       Cu  0.68457930  0.53086262  0.61901545     0.43900
N35         N  0.64118909  0.53195095  0.57707266    -0.33900
N36         N  0.65987190  0.54339455  0.60603408    -0.28100
C37         C  0.65804432  0.56178943  0.62686045    -0.04200
C38         C  0.63696147  0.56171723  0.61042866     0.08000
C39         C  0.62677830  0.54254849  0.57884423     0.01800
H40         H  0.67061213  0.57370476  0.65312061     0.09400
H41         H  0.60959445  0.53610975  0.55983442     0.08500
N42         N  0.70424672  0.51246851  0.63046108    -0.35300
N43         N  0.70237459  0.49363449  0.60601599    -0.27500
C44         C  0.71772569  0.48622463  0.62323411    -0.02800
C45         C  0.72950580  0.50079614  0.66078069     0.05900
C46         C  0.72043532  0.51719423  0.66430041     0.03900
H47         H  0.71985824  0.47111149  0.60966560     0.09100
H48         H  0.72480797  0.53120009  0.69013580     0.07900
N49         N  0.53626037  0.14778644  0.88457482    -0.26500
N50         N  0.53519606  0.12599882  0.89086383    -0.34400
C51         C  0.55080863  0.12406919  0.86176969     0.01800
C52         C  0.56222538  0.14559643  0.83582654     0.07900
C53         C  0.55255371  0.16025380  0.85093271    -0.05200
H54         H  0.55231448  0.10740857  0.85754606     0.08500
H55         H  0.55609561  0.17802525  0.83698788     0.09700
Cu56       Cu  0.50960727  0.09767345  0.93232504     0.44200
Cu57       Cu  0.51402825  0.15839892  0.91989505     0.42000
Cu58       Cu  0.46654788  0.10989806  0.99226107     0.43900
N59         N  0.47871539  0.07016243  0.96664625    -0.33900
N60         N  0.46238164  0.07451087  0.98768150    -0.28100
C61         C  0.44365040  0.05270212  0.00437833    -0.04200
C62         C  0.44849524  0.03371576  0.99336347     0.08000
C63         C  0.47091971  0.04548687  0.96948354     0.01800
H64         H  0.42751316  0.05076550  0.02262714     0.09400
H65         H  0.48073023  0.03675282  0.95483917     0.08500
N66         N  0.47622273  0.14730314  0.99386856    -0.35300
N67         N  0.49263464  0.16475089  0.96623781    -0.27500
C68         C  0.49550075  0.18717727  0.97777494    -0.02800
C69         C  0.48064447  0.18383095  0.01523228     0.05900
C70         C  0.46862686  0.15822587  0.02425982     0.03900
H71         H  0.50834950  0.20475985  0.96128112     0.09100
H72         H  0.45630836  0.14840994  0.05231242     0.07900
N73         N  0.52118932  0.34229893  0.28213190    -0.26500
N74         N  0.51144627  0.35661168  0.29166325    -0.34400
C75         C  0.52661376  0.37455366  0.32086942     0.01800
C76         C  0.54693844  0.37154122  0.32996690     0.07900
C77         C  0.54287628  0.35084385  0.30504828    -0.05200
H78         H  0.52361916  0.38940440  0.33314544     0.08500
H79         H  0.55534459  0.34329404  0.30208991     0.09700
Cu80       Cu  0.47989478  0.35383435  0.26108586     0.44200
Cu81       Cu  0.50610862  0.31357208  0.23502869     0.42000
Cu82       Cu  0.45377260  0.30888097  0.17179159     0.43900
N83         N  0.45079016  0.34999617  0.22057172    -0.33900
N84         N  0.44112470  0.33320479  0.18785363    -0.28100
C85         C  0.42392733  0.33627085  0.16551407    -0.04200
C86         C  0.42279759  0.35606467  0.18495204     0.08000
C87         C  0.44008395  0.36437790  0.21979770     0.01800
H88         H  0.41396623  0.32575221  0.13593882     0.09400
H89         H  0.44518152  0.38025959  0.24174264     0.08500
N90         N  0.46979779  0.28706171  0.15926019    -0.35300
N91         N  0.48862715  0.28839107  0.18276210    -0.27500
C92         C  0.49466027  0.27188856  0.16575860    -0.02800
C93         C  0.47895192  0.25971756  0.12960668     0.05900
C94         C  0.46345699  0.26985262  0.12649358     0.03900
H95         H  0.50952986  0.26914184  0.17850650     0.09100
H96         H  0.44892994  0.26540362  0.10173600     0.07900
N97         N  0.63703877  0.14260268  0.62098702    -0.26500
N98         N  0.61742379  0.11933330  0.62087306    -0.34400
C99         C  0.60148328  0.11703723  0.65391209     0.01800
C100        C  0.61158095  0.13988450  0.67598047     0.07900
C101        C  0.63416184  0.15568625  0.65443784    -0.05200
H102        H  0.58411019  0.09980929  0.66200945     0.08500
H103        H  0.64756681  0.17518981  0.66261364     0.09700
Cu104      Cu  0.61363347  0.09104824  0.57813882     0.44200
Cu105      Cu  0.66668140  0.15529740  0.57558166     0.42000
Cu106      Cu  0.66526852  0.10705370  0.50265870     0.43900
N107        N  0.61521320  0.06508287  0.53604926    -0.33900
N108        N  0.63446131  0.07080087  0.50899037    -0.28100
C109        C  0.63018917  0.04981802  0.48720495    -0.04200
C110        C  0.60709361  0.03001163  0.50117432     0.08000
C111        C  0.59812905  0.04035435  0.53213900     0.01800
H112        H  0.64289486  0.04903685  0.46296078     0.09400
H113        H  0.58065437  0.03054810  0.55095980     0.08500
N114        N  0.69191734  0.14520209  0.49791321    -0.35300
N115        N  0.69233244  0.16281921  0.52402305    -0.27500
C116        C  0.71009772  0.18563456  0.50878831    -0.02800
C117        C  0.72133064  0.18222274  0.47119950     0.05900
C118        C  0.70943965  0.15633834  0.46553773     0.03900
H119        H  0.71353829  0.20342365  0.52245659     0.09100
H120        H  0.71239769  0.14635948  0.43847672     0.07900
N121        N  0.83267084  0.33618636  0.18496623    -0.26500
N122        N  0.85630299  0.34700491  0.17066882    -0.34400
C123        C  0.86001851  0.36379634  0.13839697     0.01800
C124        C  0.83767805  0.36346586  0.13171234     0.07900
C125        C  0.82068342  0.34580943  0.16175443    -0.05200
H126        H  0.87788379  0.37587631  0.12185460     0.08500
H127        H  0.80126133  0.34084579  0.16720974     0.09700
Cu128      Cu  0.88348233  0.34056879  0.19778086     0.44200
Cu129      Cu  0.81878541  0.31016266  0.23766643     0.42000
Cu130      Cu  0.86651932  0.30160738  0.29506294     0.43900
N131        N  0.90951427  0.33754910  0.23704744    -0.33900
N132        N  0.90342720  0.32419495  0.27442457    -0.28100
C133        C  0.92462250  0.32991440  0.29690442    -0.04200
C134        C  0.94511800  0.34772051  0.27229532     0.08000
C135        C  0.93474118  0.35176116  0.23419426     0.01800
H136        H  0.92497232  0.32297133  0.33006479     0.09400
H137        H  0.94468711  0.36534254  0.20779617     0.08500
N138        N  0.82869371  0.28255107  0.31159953    -0.35300
N139        N  0.81131350  0.28583253  0.29194463    -0.27500
C140        C  0.78906876  0.27118700  0.31283820    -0.02800
C141        C  0.79268891  0.25805061  0.34707548     0.05900
C142        C  0.81802698  0.26569556  0.34496630     0.03900
H143        H  0.77160181  0.27036375  0.30402234     0.09100
H144        H  0.82805923  0.25948830  0.36618491     0.07900
N145        N  0.47617177  0.61110276  0.76680013    -0.26500
N146        N  0.48440482  0.59503115  0.76815608    -0.34400
C147        C  0.46799814  0.57460506  0.79176820     0.01800
C148        C  0.44837874  0.57786810  0.80573323     0.07900
C149        C  0.45418784  0.60124099  0.78928531    -0.05200
H150        H  0.47027288  0.55859625  0.79850206     0.08500
H151        H  0.44315751  0.61034963  0.79303291     0.09700
Cu152      Cu  0.51712720  0.60108692  0.73708097     0.44200
Cu153      Cu  0.49476170  0.64515509  0.73303534     0.42000
Cu154      Cu  0.54965141  0.65642934  0.66775782     0.43900
N155        N  0.54995644  0.61074675  0.70228759    -0.33900
N156        N  0.56224199  0.63128176  0.67743333    -0.28100
C157        C  0.58235986  0.63172783  0.65856140    -0.04200
C158        C  0.58259398  0.61026188  0.67184522     0.08000
C159        C  0.56173648  0.59746072  0.69957816     0.01800
H160        H  0.59549371  0.64634301  0.63603710     0.09400
H161        H  0.55507161  0.57932184  0.71539596     0.08500
N162        N  0.53258964  0.67799616  0.66278616    -0.35300
N163        N  0.51340460  0.67457160  0.68806356    -0.27500
C164        C  0.50622670  0.69092313  0.67539286    -0.02800
C165        C  0.52127429  0.70505957  0.63975688     0.05900
C166        C  0.53785256  0.69637914  0.63284741     0.03900
H167        H  0.49048512  0.69166347  0.68983068     0.09100
H168        H  0.55194910  0.70217422  0.60666411     0.07900
N169        N  0.34723087  0.48806221  0.98535764    -0.26500
N170        N  0.36055528  0.47692949  0.97892492    -0.34400
C171        C  0.37603915  0.48764486  0.94375468     0.01800
C172        C  0.37239419  0.50645518  0.92699880     0.07900
C173        C  0.35389279  0.50616719  0.95409866    -0.05200
H174        H  0.39003123  0.48305990  0.93281303     0.08500
H175        H  0.34664237  0.51892395  0.95254709     0.09700
Cu176      Cu  0.35990844  0.44973287  0.02026608     0.44200
Cu177      Cu  0.32306608  0.48008306  0.03960118     0.42000
Cu178      Cu  0.31994041  0.43163001  0.11531479     0.43900
N179        N  0.35872743  0.42473815  0.06767099    -0.33900
N180        N  0.34383859  0.41797097  0.10323484    -0.28100
C181        C  0.34892461  0.40356437  0.13005066    -0.04200
C182        C  0.36802036  0.40122961  0.11032460     0.08000
C183        C  0.37368883  0.41480129  0.07069445     0.01800
H184        H  0.34036883  0.39651656  0.16262491     0.09400
H185        H  0.38840473  0.41817349  0.04683997     0.08500
N186        N  0.30060488  0.45052857  0.12491815    -0.35300
N187        N  0.30210033  0.46851805  0.09856129    -0.27500
C188        C  0.28803264  0.47741228  0.11642476    -0.02800
C189        C  0.27705391  0.46423797  0.15570304     0.05900
C190        C  0.28541124  0.44731797  0.15978693     0.03900
H191        H  0.28608560  0.49246674  0.10195779     0.09100
H192        H  0.28073494  0.43354073  0.18617210     0.07900
N193        N  0.16207451  0.51196139  0.41773083    -0.26500
N194        N  0.13762882  0.50160958  0.42543336    -0.34400
C195        C  0.13389734  0.51549093  0.45578105     0.01800
C196        C  0.15707332  0.53576366  0.46768712     0.07900
C197        C  0.17461066  0.53292679  0.44301938    -0.05200
H198        H  0.11558374  0.51110012  0.46832258     0.08500
H199        H  0.19494081  0.54527966  0.44312774     0.09700
Cu200      Cu  0.11000375  0.46939639  0.39454943     0.44200
Cu201      Cu  0.17636381  0.49642049  0.37318139     0.42000
Cu202      Cu  0.12852271  0.43689745  0.31929097     0.43900
N203        N  0.08439709  0.43726796  0.36072717    -0.33900
N204        N  0.09101956  0.42483562  0.33305236    -0.28100
C205        C  0.07008962  0.40575438  0.31428276    -0.04200
C206        C  0.04941127  0.40643078  0.33098987     0.08000
C207        C  0.05919429  0.42660526  0.36037929     0.01800
H208        H  0.07001273  0.39321592  0.28875359     0.09400
H209        H  0.04884484  0.43363601  0.37877848     0.08500
N210        N  0.16705347  0.45508224  0.30710644    -0.35300
N211        N  0.18421706  0.47635517  0.32639923    -0.27500
C212        C  0.20698508  0.48337095  0.30871905    -0.02800
C213        C  0.20395673  0.46579994  0.27667859     0.05900
C214        C  0.17846736  0.44812990  0.27654155     0.03900
H215        H  0.22432766  0.50053438  0.31733794     0.09100
H216        H  0.16882206  0.43180813  0.25493231     0.07900
N217        N  0.48021996  0.80611140  0.34283768    -0.26500
N218        N  0.49171543  0.82958498  0.32767307    -0.34400
C219        C  0.47989502  0.83039324  0.29038843     0.01800
C220        C  0.45998745  0.80642000  0.28173215     0.07900
C221        C  0.46061516  0.79149607  0.31576883    -0.05200
H222        H  0.48397113  0.84758714  0.27330665     0.08500
H223        H  0.44673847  0.77188839  0.32228960     0.09700
Cu224      Cu  0.51878335  0.86080004  0.36294137     0.44200
Cu225      Cu  0.48920693  0.79545865  0.40291099     0.42000
Cu226      Cu  0.52858855  0.84722208  0.47593254     0.43900
N227        N  0.53880617  0.88865761  0.41053464    -0.33900
N228        N  0.54190675  0.88338860  0.45221466    -0.28100
C229        C  0.55419072  0.90490954  0.47588866    -0.04200
C230        C  0.55906858  0.92478203  0.44785941     0.08000
C231        C  0.54901610  0.91380445  0.40659755     0.01800
H232        H  0.55874226  0.90595028  0.51112754     0.09400
H233        H  0.54881306  0.92332327  0.37626321     0.08500
N234        N  0.51551797  0.80994734  0.49226504    -0.35300
N235        N  0.50140227  0.79085786  0.46523005    -0.27500
C236        C  0.49773091  0.76940174  0.48413783    -0.02800
C237        C  0.51015952  0.77531084  0.52508021     0.05900
C238        C  0.52109987  0.80119818  0.52916089     0.03900
H239        H  0.48753509  0.75100896  0.46854536     0.09100
H240        H  0.53282076  0.81293910  0.55639854     0.07900
N241        N  0.16587332  0.62614167  0.66690513    -0.26500
N242        N  0.14152320  0.60914891  0.66522083    -0.34400
C243        C  0.13717517  0.59346908  0.63071503     0.01800
C244        C  0.15979783  0.60082435  0.60935451     0.07900
C245        C  0.17772628  0.62157409  0.63323428    -0.05200
H246        H  0.11882894  0.57766691  0.62200641     0.08500
H247        H  0.19779899  0.63255810  0.62656628     0.09700
Cu248      Cu  0.11469631  0.60680320  0.70959774     0.44200
Cu249      Cu  0.18118744  0.65409864  0.71590399     0.42000
Cu250      Cu  0.13574570  0.64891384  0.80198513     0.43900
N251        N  0.09050792  0.60642512  0.75788559    -0.33900
N252        N  0.09819042  0.62223463  0.79217117    -0.28100
C253        C  0.07808494  0.61766586  0.81726650    -0.04200
C254        C  0.05686861  0.59789143  0.79770203     0.08000
C255        C  0.06536659  0.59117798  0.76022643     0.01800
H256        H  0.07886408  0.62783303  0.84739637     0.09400
H257        H  0.05411618  0.57646850  0.73628415     0.08500
N258        N  0.17402730  0.67471192  0.80353354    -0.35300
N259        N  0.19041017  0.67727417  0.77210279    -0.27500
C260        C  0.21349176  0.69599907  0.78416149    -0.02800
C261        C  0.21155180  0.70548152  0.82532729     0.05900
C262        C  0.18624550  0.69144713  0.83647138     0.03900
H263        H  0.23046985  0.70203309  0.76459967     0.09100
H264        H  0.17735222  0.69291928  0.86684904     0.07900
N265        N  0.36351085  0.80717699  0.10817547    -0.26500
N266        N  0.37673205  0.83041307  0.12407723    -0.34400
C267        C  0.39200614  0.83109159  0.15677416     0.01800
C268        C  0.38836315  0.80720323  0.16163918     0.07900
C269        C  0.37025658  0.79240855  0.13025511    -0.05200
H270        H  0.40547635  0.84795747  0.17458654     0.08500
H271        H  0.36291380  0.77257349  0.12338013     0.09700
Cu272      Cu  0.37583425  0.86095095  0.09804431     0.44200
Cu273      Cu  0.33806714  0.79776847  0.05576485     0.42000
Cu274      Cu  0.33482013  0.85040766  0.00498251     0.43900
N275        N  0.37563069  0.88973335  0.06314457    -0.33900
N276        N  0.36026169  0.88595556  0.02929328    -0.28100
C277        C  0.36625286  0.90836164  0.01139578    -0.04200
C278        C  0.38660732  0.92711367  0.03483899     0.08000
C279        C  0.39196532  0.91457454  0.06749364     0.01800
H280        H  0.35722567  0.91071330  0.98213745     0.09400
H281        H  0.40749298  0.92277476  0.09106567     0.08500
N282        N  0.31431317  0.81337014  0.98315572    -0.35300
N283        N  0.31531152  0.79436755  0.00165168    -0.27500
C284        C  0.29974363  0.77306812  0.97918923    -0.02800
C285        C  0.28851542  0.77893721  0.94475789     0.05900
C286        C  0.29825195  0.80467965  0.94826917     0.03900
H287        H  0.29669827  0.75463230  0.98753376     0.09100
H288        H  0.29408893  0.81630273  0.92692393     0.07900
C289        C  0.23209412  0.72537285  0.85333147    -0.04500
C290        C  0.25468606  0.72515828  0.86083660    -0.01700
C291        C  0.27359474  0.74342946  0.88894950     0.03300
C292        C  0.26953291  0.76116709  0.91200291    -0.04500
C293        C  0.24699486  0.76143731  0.90444138    -0.01700
C294        C  0.22871668  0.74410358  0.87433525     0.03300
C295        C  0.25816297  0.70546614  0.84151596     0.38000
C296        C  0.24195961  0.77881838  0.92899197     0.38000
C297        C  0.20665918  0.74601599  0.86438740     0.36400
C298        C  0.29755022  0.74434096  0.89303115     0.36400
N299        N  0.18915644  0.74768157  0.85644310    -0.38400
N300        N  0.31670026  0.74513917  0.89590727    -0.38400
N301        N  0.23784317  0.79258481  0.94863844    -0.37900
N302        N  0.26095952  0.68972059  0.82636579    -0.37900
C303        C  0.40305384  0.80049833  0.19189459    -0.04500
C304        C  0.39931399  0.80016305  0.23870486    -0.01700
C305        C  0.41699896  0.79995952  0.26839746     0.03300
C306        C  0.43873330  0.80058005  0.25126977    -0.04500
C307        C  0.44149098  0.79901629  0.20450401    -0.01700
C308        C  0.42347927  0.79866804  0.17480364     0.03300
C309        C  0.37777045  0.80109214  0.25623103     0.38000
C310        C  0.46336684  0.79874840  0.18696996     0.38000
C311        C  0.42674898  0.79794630  0.12664923     0.36400
C312        C  0.41362202  0.80071176  0.31652508     0.36400
N313        N  0.42929108  0.79730509  0.08821703    -0.38400
N314        N  0.41092449  0.80129708  0.35491758    -0.38400
N315        N  0.48083101  0.79855068  0.17296651    -0.37900
N316        N  0.36059412  0.80187683  0.27010951    -0.37900
C317        C  0.16306815  0.58822891  0.56953066    -0.04500
C318        C  0.17906334  0.57800991  0.57126191    -0.01700
C319        C  0.17808296  0.56169585  0.53683849     0.03300
C320        C  0.16135574  0.55586124  0.50027497    -0.04500
C321        C  0.14695501  0.56780139  0.49688272    -0.01700
C322        C  0.14776108  0.58383555  0.53138970     0.03300
C323        C  0.19536017  0.58293773  0.60973837     0.38000
C324        C  0.13104636  0.56346501  0.45797950     0.38000
C325        C  0.13258724  0.59568984  0.52774192     0.36400
C326        C  0.19291644  0.54952362  0.54089289     0.36400
N327        N  0.12043746  0.60507645  0.52487392    -0.38400
N328        N  0.20469137  0.53975445  0.54423324    -0.38400
N329        N  0.11826778  0.55993346  0.42709361    -0.37900
N330        N  0.20843053  0.58686898  0.64033527    -0.37900
C331        C  0.25940341  0.46674627  0.18658775    -0.04500
C332        C  0.23832462  0.46740061  0.16938834    -0.01700
C333        C  0.22054695  0.46768715  0.19895603     0.03300
C334        C  0.22343222  0.46691434  0.24586476    -0.04500
C335        C  0.24481860  0.46705180  0.26317516    -0.01700
C336        C  0.26288327  0.46724044  0.23369755     0.03300
C337        C  0.23425060  0.46687053  0.12130075     0.38000
C338        C  0.24785417  0.46614622  0.31136696     0.38000
C339        C  0.28533867  0.46853037  0.25211177     0.36400
C340        C  0.19948286  0.46928013  0.18100308     0.36400
N341        N  0.30323608  0.46959041  0.26689926    -0.38400
N342        N  0.18274428  0.47064945  0.16670482    -0.38400
N343        N  0.25028548  0.46535323  0.34977160    -0.37900
N344        N  0.23092840  0.46652059  0.08297800    -0.37900
C345        C  0.42640460  0.56019365  0.83374036    -0.04500
C346        C  0.42041565  0.56875656  0.87340838    -0.01700
C347        C  0.40163869  0.55136394  0.90287092     0.03300
C348        C  0.38856868  0.52530453  0.89267451    -0.04500
C349        C  0.39326677  0.51701695  0.85144103    -0.01700
C350        C  0.41219186  0.53434232  0.82221917     0.03300
C351        C  0.43459006  0.59525961  0.88560180     0.38000
C352        C  0.37852861  0.49057539  0.83893804     0.38000
C353        C  0.41689623  0.52547067  0.78012961     0.36400
C354        C  0.39708098  0.56027309  0.94503259     0.36400
N355        N  0.42064463  0.51832909  0.74664917    -0.38400
N356        N  0.39350798  0.56745903  0.97862426    -0.38400
N357        N  0.36675366  0.46951261  0.82889627    -0.37900
N358        N  0.44579709  0.61637752  0.89546978    -0.37900
C359        C  0.51295150  0.75783043  0.55588672    -0.04500
C360        C  0.53711131  0.76363290  0.57104832    -0.01700
C361        C  0.53975945  0.74665963  0.59911771     0.03300
C362        C  0.51836608  0.72341201  0.61152950    -0.04500
C363        C  0.49422220  0.71756971  0.59611221    -0.01700
C364        C  0.49150817  0.73489613  0.56923359     0.03300
C365        C  0.55950396  0.78668178  0.55661807     0.38000
C366        C  0.47212361  0.69323533  0.60600973     0.38000
C367        C  0.46643066  0.72928359  0.55636669     0.36400
C368        C  0.56459538  0.75344176  0.61570574     0.36400
N369        N  0.44637282  0.72474210  0.54642273    -0.38400
N370        N  0.58444218  0.75892236  0.62879322    -0.38400
N371        N  0.45448586  0.67382070  0.61376259    -0.37900
N372        N  0.57739698  0.80504839  0.54517744    -0.37900
C373        C  0.97187385  0.36264916  0.28742540    -0.04500
C374        C  0.98530603  0.38930854  0.28381652    -0.01700
C375        C  0.01074109  0.40345060  0.29718184     0.03300
C376        C  0.02283206  0.39127648  0.31581737    -0.04500
C377        C  0.00940081  0.36477653  0.32040628    -0.01700
C378        C  0.98405557  0.35047666  0.30607187     0.03300
C379        C  0.97286565  0.40255269  0.26803246     0.38000
C380        C  0.02147816  0.35225984  0.34095959     0.38000
C381        C  0.97076393  0.32319421  0.30986801     0.36400
C382        C  0.02465253  0.43059205  0.29047811     0.36400
N383        N  0.96021777  0.30143794  0.31305503    -0.38400
N384        N  0.03567969  0.45220329  0.28491751    -0.38400
N385        N  0.03110226  0.34230336  0.35748817    -0.37900
N386        N  0.96304186  0.41320089  0.25544489    -0.37900
C387        C  0.59487321  0.00318509  0.48706055    -0.04500
C388        C  0.57076053  0.99119539  0.46689647    -0.01700
C389        C  0.55917619  0.96568698  0.45349255     0.03300
C390        C  0.57154193  0.95190216  0.46052204    -0.04500
C391        C  0.59551324  0.96384580  0.48135880    -0.01700
C392        C  0.60716215  0.98939532  0.49436072     0.03300
C393        C  0.55791143  0.00517466  0.45956310     0.38000
C394        C  0.60838232  0.94993410  0.48925092     0.38000
C395        C  0.63142964  0.00122048  0.51687124     0.36400
C396        C  0.53403550  0.95338294  0.43427405     0.36400
N397        N  0.65074084  0.01063573  0.53495940    -0.38400
N398        N  0.51394602  0.94358760  0.41909325    -0.38400
N399        N  0.61859805  0.93881891  0.49581710    -0.40300
N400        N  0.54764613  0.01631893  0.45386094    -0.37900
C401        C  0.73930397  0.20204575  0.43971951    -0.04500
C402        C  0.76224928  0.22244637  0.45570478    -0.01700
C403        C  0.77933970  0.24109625  0.42567092     0.03300
C404        C  0.77375841  0.23943459  0.37919716    -0.04500
C405        C  0.75049836  0.21933322  0.36345349    -0.01700
C406        C  0.73336850  0.20078904  0.39354331     0.03300
C407        C  0.76870683  0.22394046  0.50293096     0.38000
C408        C  0.74432100  0.21714900  0.31602099     0.38000
C409        C  0.70930968  0.18069245  0.37687664     0.36400
C410        C  0.80242251  0.26234816  0.44303676     0.36400
N411        N  0.69014290  0.16465109  0.36356955    -0.38400
N412        N  0.82082505  0.27927686  0.45692381    -0.38400
N413        N  0.73923409  0.21534315  0.27825562    -0.37900
N414        N  0.77396575  0.22522023  0.54054548    -0.37900
C415        C  0.40864794  0.36787619  0.16760176    -0.04500
C416        C  0.38212579  0.35343022  0.16317151    -0.01700
C417        C  0.36877506  0.36437211  0.14487058     0.03300
C418        C  0.38190381  0.38977230  0.13047541    -0.04500
C419        C  0.40840477  0.40431026  0.13554651    -0.01700
C420        C  0.42172928  0.39335953  0.15373426     0.03300
C421        C  0.36849794  0.32734313  0.17794244     0.38000
C422        C  0.42200721  0.43082391  0.12331682     0.38000
C423        C  0.44905698  0.40815226  0.15647607     0.36400
C424        C  0.34156717  0.34927748  0.13998273     0.36400
N425        N  0.47085256  0.41998902  0.15846648    -0.38400
N426        N  0.31985887  0.33725211  0.13621115    -0.38400
N427        N  0.43283308  0.45197262  0.11363982    -0.37900
N428        N  0.35762324  0.30653000  0.18968305    -0.37900
C429        C  0.40185181  0.95441419  0.02384814    -0.04500
C430        C  0.41060018  0.96233134  0.97948301    -0.01700
C431        C  0.42566784  0.98822386  0.96946085     0.03300
C432        C  0.43258346  0.00643792  0.00384518    -0.04500
C433        C  0.42409633  0.99852660  0.04826270    -0.01700
C434        C  0.40857650  0.97266432  0.05811630     0.03300
C435        C  0.40491652  0.94391351  0.94415702     0.38000
C436        C  0.43200271  0.01691143  0.08432310     0.38000
C437        C  0.39907767  0.96496230  0.10350034     0.36400
C438        C  0.43349764  0.99602821  0.92336609     0.36400
N439        N  0.39152062  0.95892726  0.13972446    -0.38400
N440        N  0.43970823  0.00217050  0.88658185    -0.38400
N441        N  0.43834731  0.03156302  0.11308770    -0.37900
N442        N  0.40042806  0.92930056  0.91587547    -0.37900
C443        C  0.60079250  0.14529510  0.71601619    -0.04500
C444        C  0.61301042  0.14990284  0.75801939    -0.01700
C445        C  0.60095454  0.15152883  0.79715511     0.03300
C446        C  0.57676889  0.14869847  0.79436318    -0.04500
C447        C  0.56521629  0.14559961  0.75207925    -0.01700
C448        C  0.57719540  0.14385389  0.71298335     0.03300
C449        C  0.63733999  0.15159544  0.76140052     0.38000
C450        C  0.54040292  0.14286346  0.74905485     0.38000
C451        C  0.56510305  0.14031410  0.66962939     0.36400
C452        C  0.61319312  0.15567126  0.84051222     0.36400
N453        N  0.55544007  0.13754120  0.63507847    -0.38400
N454        N  0.62292041  0.15903670  0.87513909    -0.38400
N455        N  0.52060595  0.14067008  0.74679651    -0.37900
N456        N  0.65673660  0.15291834  0.76419227    -0.37900
C457        C  0.47925977  0.24055549  0.09954410    -0.04500
C458        C  0.45661017  0.21797565  0.08926841    -0.01700
C459        C  0.45697404  0.19980902  0.06079583     0.03300
C460        C  0.48011693  0.20363773  0.04340428    -0.04500
C461        C  0.50280713  0.22618960  0.05417232    -0.01700
C462        C  0.50225985  0.24477715  0.08105911     0.03300
C463        C  0.43288545  0.21298020  0.10894820     0.38000
C464        C  0.52704536  0.23008155  0.03946207     0.38000
C465        C  0.52541170  0.26867218  0.08829842     0.36400
C466        C  0.43330929  0.17739485  0.04888838     0.36400
N467        N  0.54387312  0.28774958  0.09377127    -0.38400
N468        N  0.41437115  0.15955056  0.03959658    -0.38400
N469        N  0.54646013  0.23332428  0.02794752    -0.37900
N470        N  0.41394920  0.20895572  0.12459565    -0.37900
C471        C  0.62567276  0.57669782  0.62655516    -0.04500
C472        C  0.62158172  0.57815574  0.67296242    -0.01700
C473        C  0.60897315  0.59062044  0.68780097     0.03300
C474        C  0.59951430  0.60098882  0.65640085    -0.04500
C475        C  0.60462075  0.60051289  0.61010494    -0.01700
C476        C  0.61772582  0.58851747  0.59534168     0.03300
C477        C  0.62889155  0.56552563  0.70555719     0.38000
C478        C  0.59552925  0.61133124  0.57709805     0.38000
C479        C  0.62291070  0.58826710  0.54777356     0.36400
C480        C  0.60601724  0.59296987  0.73566206     0.36400
N481        N  0.62695750  0.58800615  0.50983496    -0.38400
N482        N  0.60379741  0.59486139  0.77386112    -0.38400
N483        N  0.58843731  0.62000436  0.55054633    -0.37900
N484        N  0.63461038  0.55537569  0.73156991    -0.37900
C485        C  0.60690657  0.42349088  0.41598975    -0.04500
C486        C  0.60150889  0.43213004  0.37596527    -0.01700
C487        C  0.58275188  0.41492355  0.34660576     0.03300
C488        C  0.56947721  0.38889962  0.35672381    -0.04500
C489        C  0.57669717  0.37998320  0.39420378    -0.01700
C490        C  0.59532167  0.39727755  0.42399588     0.03300
C491        C  0.61509569  0.45884380  0.36512480     0.38000
C492        C  0.56386863  0.35316696  0.40378333     0.38000
C493        C  0.60116366  0.38809055  0.46437663     0.36400
C494        C  0.57697506  0.42409621  0.30607833     0.36400
N495        N  0.60577952  0.38071039  0.49658364    -0.38400
N496        N  0.57230765  0.43141080  0.27384837    -0.38400
N497        N  0.55369104  0.33178186  0.41150156    -0.37900
N498        N  0.62588918  0.48012965  0.35645513    -0.37900
C499        C  0.97921179  0.56306796  0.83905953    -0.04500
C500        C  0.99219506  0.58836634  0.82403314    -0.01700
C501        C  0.01771794  0.59985898  0.81085164     0.03300
C502        C  0.03044253  0.58623419  0.81315741    -0.04500
C503        C  0.01761837  0.56107759  0.82850458    -0.01700
C504        C  0.99205056  0.54945537  0.84119345     0.03300
C505        C  0.97945217  0.60273981  0.82268527     0.38000
C506        C  0.03077277  0.54711660  0.83124078     0.38000
C507        C  0.97875760  0.52311189  0.85449674     0.36400
C508        C  0.03061853  0.62535670  0.79309830     0.36400
N509        N  0.96816903  0.50209033  0.86501275    -0.38400
N510        N  0.04093067  0.64561105  0.77857802    -0.38400
N511        N  0.04125732  0.53598451  0.83340386    -0.37900
N512        N  0.96937337  0.61429155  0.82162553    -0.37900
C513        C  0.83479419  0.41540257  0.03869538    -0.04500
C514        C  0.84185795  0.42258972  0.08389655    -0.01700
C515        C  0.84154490  0.40515289  0.11499192     0.03300
C516        C  0.83403730  0.38038042  0.10122457    -0.04500
C517        C  0.82546195  0.37268395  0.05691323    -0.01700
C518        C  0.82582011  0.39012657  0.02565987     0.03300
C519        C  0.84945259  0.44798593  0.09846651     0.38000
C520        C  0.81717555  0.34702525  0.04308462     0.38000
C521        C  0.81835735  0.38236130  0.97951796     0.36400
C522        C  0.84945370  0.41283080  0.16102876     0.36400
N523        N  0.81239653  0.37610601  0.94271450    -0.38400
N524        N  0.85572068  0.41891862  0.19778147    -0.38400
N525        N  0.81055987  0.32653758  0.03213907    -0.37900
N526        N  0.85543105  0.46822265  0.11008169    -0.37900
C527        C  0.78159234  0.49498085  0.75025970    -0.04500
C528        C  0.78605202  0.51891885  0.73652512    -0.01700
C529        C  0.76935208  0.52077994  0.70663934     0.03300
C530        C  0.74735655  0.49876907  0.69169800    -0.04500
C531        C  0.74245575  0.47486518  0.70665271    -0.01700
C532        C  0.75971851  0.47297211  0.73506722     0.03300
C533        C  0.80751292  0.54185124  0.75389543     0.38000
C534        C  0.71936131  0.45206695  0.69380945     0.38000
C535        C  0.75528262  0.44820104  0.74715960     0.36400
C536        C  0.77551034  0.54545348  0.69006090     0.36400
N537        N  0.75165685  0.42838509  0.75655183    -0.38400
N538        N  0.78054241  0.56516137  0.67688839    -0.38400
N539        N  0.70099490  0.43383519  0.68359497    -0.37900
N540        N  0.82458188  0.56019675  0.76762719    -0.37900
loop_ 
_geom_bond_atom_site_label_1 
_geom_bond_atom_site_label_2 
_geom_bond_distance 
_geom_bond_site_symmetry_2 
_ccdc_geom_bond_type 
N1            N2   1.322       .  A
N1            C5   1.349       .  A
N1           Cu9   2.083       .  S
N2            C3   1.342       .  A
N2           Cu8   2.067       .  S
C3            C4   1.381   1_556  A
C3            H6   1.083   1_556  S
C4            C5   1.388   1_554  A
C4          C513   1.488       .  S
C5            H7   1.083       .  S
Cu8          N11   2.066       .  S
Cu9          N19   2.083       .  S
Cu10         N12   2.064       .  S
Cu10         N18   2.064       .  S
N11          N12   1.320       .  A
N11          C15   1.342       .  A
N12          C13   1.345       .  A
C13          C14   1.384       .  A
C13          H16   1.080       .  S
C14          C15   1.383       .  A
C14         C499   1.484       .  S
C15          H17   1.081       .  S
N18          N19   1.323       .  A
N18          C22   1.341       .  A
N19          C20   1.346       .  A
C20          C21   1.386       .  A
C20          H23   1.082       .  S
C21          C22   1.381       .  A
C21         C527   1.488       .  S
C22          H24   1.082       .  S
N25          N26   1.322       .  A
N25          C29   1.347       .  A
N25         Cu33   2.069       .  S
N26          C27   1.338       .  A
N26         Cu32   2.061       .  S
C27          C28   1.380       .  A
C27          H30   1.082       .  S
C28          C29   1.385       .  A
C28         C485   1.482       .  S
C29          H31   1.084       .  S
Cu32         N35   2.061       .  S
Cu33         N43   2.070       .  S
Cu34         N36   2.062       .  S
Cu34         N42   2.063       .  S
N35          N36   1.319       .  A
N35          C39   1.342       .  A
N36          C37   1.344       .  A
C37          C38   1.385       .  A
C37          H40   1.082       .  S
C38          C39   1.384       .  A
C38         C471   1.487       .  S
C39          H41   1.082       .  S
N42          N43   1.322       .  A
N42          C46   1.342       .  A
N43          C44   1.343       .  A
C44          C45   1.385       .  A
C44          H47   1.081       .  S
C45          C46   1.383       .  A
C45         C530   1.488       .  S
C46          H48   1.082       .  S
N49          N50   1.322       .  A
N49          C53   1.346       .  A
N49         Cu57   2.074       .  S
N50          C51   1.341       .  A
N50         Cu56   2.061       .  S
C51          C52   1.378       .  A
C51          H54   1.083       .  S
C52          C53   1.383       .  A
C52         C446   1.477       .  S
C53          H55   1.084       .  S
Cu56         N59   2.061       .  S
Cu57         N67   2.074       .  S
Cu58         N60   2.064       .  S
Cu58         N66   2.065       .  S
N59          N60   1.320       .  A
N59          C63   1.343       .  A
N60          C61   1.343   1_556  A
C61          C62   1.384   1_554  A
C61          H64   1.083       .  S
C62          C63   1.383       .  A
C62         C432   1.484   1_556  S
C63          H65   1.082       .  S
N66          N67   1.321       .  A
N66          C70   1.343   1_556  A
N67          C68   1.344       .  A
C68          C69   1.387   1_556  A
C68          H71   1.080       .  S
C69          C70   1.385       .  A
C69         C460   1.492       .  S
C70          H72   1.081       .  S
N73          N74   1.323       .  A
N73          C77   1.346       .  A
N73         Cu81   2.069       .  S
N74          C75   1.341       .  A
N74         Cu80   2.073       .  S
C75          C76   1.382       .  A
C75          H78   1.083       .  S
C76          C77   1.382       .  A
C76         C488   1.482       .  S
C77          H79   1.084       .  S
Cu80         N83   2.073       .  S
Cu81         N91   2.070       .  S
Cu82         N84   2.063       .  S
Cu82         N90   2.063       .  S
N83          N84   1.321       .  A
N83          C87   1.346       .  A
N84          C85   1.343       .  A
C85          C86   1.381       .  A
C85          H88   1.080       .  S
C86          C87   1.385       .  A
C86         C415   1.483       .  S
C87          H89   1.081       .  S
N90          N91   1.321       .  A
N90          C94   1.343       .  A
N91          C92   1.344       .  A
C92          C93   1.385       .  A
C92          H95   1.081       .  S
C93          C94   1.383       .  A
C93         C457   1.487       .  S
C94          H96   1.082       .  S
N97          N98   1.323       .  A
N97         C101   1.346       .  A
N97        Cu105   2.075       .  S
N98          C99   1.343       .  A
N98        Cu104   2.070       .  S
C99         C100   1.380       .  A
C99         H102   1.083       .  S
C100        C101   1.382       .  A
C100        C443   1.480       .  S
C101        H103   1.083       .  S
Cu104       N107   2.070       .  S
Cu105       N115   2.075       .  S
Cu106       N108   2.075       .  S
Cu106       N114   2.075       .  S
N107        N108   1.322       .  A
N107        C111   1.345       .  A
N108        C109   1.345       .  A
C109        C110   1.384       .  A
C109        H112   1.081       .  S
C110        C111   1.382       .  A
C110        C387   1.485       .  S
C111        H113   1.083       .  S
N114        N115   1.323       .  A
N114        C118   1.344       .  A
N115        C116   1.346       .  A
C116        C117   1.384       .  A
C116        H119   1.083       .  S
C117        C118   1.384       .  A
C117        C401   1.489       .  S
C118        H120   1.082       .  S
N121        N122   1.324       .  A
N121        C125   1.349       .  A
N121       Cu129   2.089       .  S
N122        C123   1.343       .  A
N122       Cu128   2.070       .  S
C123        C124   1.379       .  A
C123        H126   1.082       .  S
C124        C125   1.384       .  A
C124        C516   1.483       .  S
C125        H127   1.084       .  S
Cu128       N131   2.068       .  S
Cu129       N139   2.090       .  S
Cu130       N132   2.062       .  S
Cu130       N138   2.063       .  S
N131        N132   1.319       .  A
N131        C135   1.342       .  A
N132        C133   1.345       .  A
C133        C134   1.386       .  A
C133        H136   1.081       .  S
C134        C135   1.386       .  A
C134        C373   1.490       .  S
C135        H137   1.082       .  S
N138        N139   1.323       .  A
N138        C142   1.342       .  A
N139        C140   1.347       .  A
C140        C141   1.389       .  A
C140        H143   1.083       .  S
C141        C142   1.382       .  A
C141        C404   1.491       .  S
C142        H144   1.081       .  S
N145        N146   1.321       .  A
N145        C149   1.344       .  A
N145       Cu153   2.067       .  S
N146        C147   1.342       .  A
N146       Cu152   2.068       .  S
C147        C148   1.383       .  A
C147        H150   1.082       .  S
C148        C149   1.384       .  A
C148        C345   1.486       .  S
C149        H151   1.083       .  S
Cu152       N155   2.068       .  S
Cu153       N163   2.067       .  S
Cu154       N156   2.074       .  S
Cu154       N162   2.075       .  S
N155        N156   1.321       .  A
N155        C159   1.343       .  A
N156        C157   1.345       .  A
C157        C158   1.387       .  A
C157        H160   1.082       .  S
C158        C159   1.385       .  A
C158        C474   1.490       .  S
C159        H161   1.082       .  S
N162        N163   1.322       .  A
N162        C166   1.345       .  A
N163        C164   1.343       .  A
C164        C165   1.385       .  A
C164        H167   1.080       .  S
C165        C166   1.386       .  A
C165        C362   1.491       .  S
C166        H168   1.081       .  S
N169        N170   1.322       .  A
N169        C173   1.346       .  A
N169       Cu177   2.075   1_556  S
N170        C171   1.340       .  A
N170       Cu176   2.063   1_556  S
C171        C172   1.380       .  A
C171        H174   1.083       .  S
C172        C173   1.386       .  A
C172        C348   1.485       .  S
C173        H175   1.083       .  S
Cu176       N179   2.063       .  S
Cu177       N187   2.076       .  S
Cu178       N180   2.062       .  S
Cu178       N186   2.062       .  S
N179        N180   1.320       .  A
N179        C183   1.343       .  A
N180        C181   1.344       .  A
C181        C182   1.383       .  A
C181        H184   1.082       .  S
C182        C183   1.384       .  A
C182        C418   1.484       .  S
C183        H185   1.083       .  S
N186        N187   1.322       .  A
N186        C190   1.341       .  A
N187        C188   1.345       .  A
C188        C189   1.386       .  A
C188        H191   1.083       .  S
C189        C190   1.382       .  A
C189        C331   1.488       .  S
C190        H192   1.082       .  S
N193        N194   1.321       .  A
N193        C197   1.347       .  A
N193       Cu201   2.071       .  S
N194        C195   1.339       .  A
N194       Cu200   2.059       .  S
C195        C196   1.381       .  A
C195        H198   1.082       .  S
C196        C197   1.386       .  A
C196        C320   1.485       .  S
C197        H199   1.084       .  S
Cu200       N203   2.059       .  S
Cu201       N211   2.072       .  S
Cu202       N204   2.073       .  S
Cu202       N210   2.074       .  S
N203        N204   1.320       .  A
N203        C207   1.342       .  A
N204        C205   1.347       .  A
C205        C206   1.385       .  A
C205        H208   1.080       .  S
C206        C207   1.381       .  A
C206        C376   1.483       .  S
C207        H209   1.082       .  S
N210        N211   1.324       .  A
N210        C214   1.343       .  A
N211        C212   1.344       .  A
C212        C213   1.381       .  A
C212        H215   1.084       .  S
C213        C214   1.381       .  A
C213        C334   1.481       .  S
C214        H216   1.081       .  S
N217        N218   1.324       .  A
N217        C221   1.346       .  A
N217       Cu225   2.076       .  S
N218        C219   1.343       .  A
N218       Cu224   2.077       .  S
C219        C220   1.381       .  A
C219        H222   1.083       .  S
C220        C221   1.382       .  A
C220        C306   1.479       .  S
C221        H223   1.084       .  S
Cu224       N227   2.078       .  S
Cu225       N235   2.075       .  S
Cu226       N228   2.067       .  S
Cu226       N234   2.067       .  S
N227        N228   1.321       .  A
N227        C231   1.347       .  A
N228        C229   1.343       .  A
C229        C230   1.382       .  A
C229        H232   1.080       .  S
C230        C231   1.387       .  A
C230        C390   1.488       .  S
C231        H233   1.081       .  S
N234        N235   1.321       .  A
N234        C238   1.344       .  A
N235        C236   1.345       .  A
C236        C237   1.386       .  A
C236        H239   1.081       .  S
C237        C238   1.384       .  A
C237        C359   1.490       .  S
C238        H240   1.082       .  S
N241        N242   1.322       .  A
N241        C245   1.349       .  A
N241       Cu249   2.080       .  S
N242        C243   1.339       .  A
N242       Cu248   2.058       .  S
C243        C244   1.379       .  A
C243        H246   1.082       .  S
C244        C245   1.386       .  A
C244        C317   1.483       .  S
C245        H247   1.083       .  S
Cu248       N251   2.058       .  S
Cu249       N259   2.080       .  S
Cu250       N252   2.065       .  S
Cu250       N258   2.066       .  S
N251        N252   1.320       .  A
N251        C255   1.342       .  A
N252        C253   1.345       .  A
C253        C254   1.382       .  A
C253        H256   1.080       .  S
C254        C255   1.380       .  A
C254        C502   1.477       .  S
C255        H257   1.081       .  S
N258        N259   1.323       .  A
N258        C262   1.342       .  A
N259        C260   1.346       .  A
C260        C261   1.387       .  A
C260        H263   1.082       .  S
C261        C262   1.382       .  A
C261        C289   1.490       .  S
C262        H264   1.083       .  S
N265        N266   1.322       .  A
N265        C269   1.348       .  A
N265       Cu273   2.075       .  S
N266        C267   1.340       .  A
N266       Cu272   2.061       .  S
C267        C268   1.378       .  A
C267        H270   1.082       .  S
C268        C269   1.383       .  A
C268        C303   1.477       .  S
C269        H271   1.084       .  S
Cu272       N275   2.060       .  S
Cu273       N283   2.076       .  S
Cu274       N276   2.069       .  S
Cu274       N282   2.070   1_554  S
N275        N276   1.320       .  A
N275        C279   1.342       .  A
N276        C277   1.344       .  A
C277        C278   1.385       .  A
C277        H280   1.083   1_554  S
C278        C279   1.383       .  A
C278        C429   1.486       .  S
C279        H281   1.082       .  S
N282        N283   1.323   1_556  A
N282        C286   1.344       .  A
N283        C284   1.344   1_554  A
C284        C285   1.384       .  A
C284        H287   1.081       .  S
C285        C286   1.384       .  A
C285        C292   1.488       .  S
C286        H288   1.081       .  S
C289        C290   1.415       .  A
C289        C294   1.415       .  A
C290        C291   1.411       .  A
C290        C295   1.451       .  S
C291        C292   1.414       .  A
C291        C298   1.452       .  S
C292        C293   1.414       .  A
C293        C294   1.410       .  A
C293        C296   1.452       .  S
C294        C297   1.452       .  S
C295        N302   1.157       .  T
C296        N301   1.157       .  T
C297        N299   1.157       .  T
C298        N300   1.157       .  T
C303        C304   1.410       .  A
C303        C308   1.411       .  A
C304        C305   1.408       .  A
C304        C309   1.451       .  S
C305        C306   1.412       .  A
C305        C312   1.451       .  S
C306        C307   1.411       .  A
C307        C308   1.411       .  A
C307        C310   1.450       .  S
C308        C311   1.450       .  S
C309        N316   1.157       .  T
C310        N315   1.157       .  T
C311        N313   1.157       .  T
C312        N314   1.157       .  T
C317        C318   1.413       .  A
C317        C322   1.412       .  A
C318        C319   1.413       .  A
C318        C323   1.451       .  S
C319        C320   1.414       .  A
C319        C326   1.451       .  S
C320        C321   1.413       .  A
C321        C322   1.406       .  A
C321        C324   1.452       .  S
C322        C325   1.452       .  S
C323        N330   1.157       .  T
C324        N329   1.157       .  T
C325        N327   1.157       .  T
C326        N328   1.157       .  T
C331        C332   1.415       .  A
C331        C336   1.417       .  A
C332        C333   1.409       .  A
C332        C337   1.451       .  S
C333        C334   1.412       .  A
C333        C340   1.452       .  S
C334        C335   1.410       .  A
C335        C336   1.410       .  A
C335        C338   1.452       .  S
C336        C339   1.452       .  S
C337        N344   1.157       .  T
C338        N343   1.157       .  T
C339        N341   1.157       .  T
C340        N342   1.157       .  T
C345        C346   1.414       .  A
C345        C350   1.414       .  A
C346        C347   1.411       .  A
C346        C351   1.451       .  S
C347        C348   1.414       .  A
C347        C354   1.451       .  S
C348        C349   1.413       .  A
C349        C350   1.409       .  A
C349        C352   1.452       .  S
C350        C353   1.452       .  S
C351        N358   1.157       .  T
C352        N357   1.157       .  T
C353        N355   1.157       .  T
C354        N356   1.157       .  T
C359        C360   1.416       .  A
C359        C364   1.413       .  A
C360        C361   1.411       .  A
C360        C365   1.451       .  S
C361        C362   1.414       .  A
C361        C368   1.452       .  S
C362        C363   1.416       .  A
C363        C364   1.410       .  A
C363        C366   1.452       .  S
C364        C367   1.452       .  S
C365        N372   1.157       .  T
C366        N371   1.157       .  T
C367        N369   1.157       .  T
C368        N370   1.157       .  T
C373        C374   1.417       .  A
C373        C378   1.416       .  A
C374        C375   1.408   1_655  A
C374        C379   1.452       .  S
C375        C376   1.412       .  A
C375        C382   1.452       .  S
C376        C377   1.411       .  A
C377        C378   1.412   1_455  A
C377        C380   1.451       .  S
C378        C381   1.451       .  S
C379        N386   1.158       .  T
C380        N385   1.157       .  T
C381        N383   1.157       .  T
C382        N384   1.157       .  T
C387        C388   1.413   1_545  A
C387        C392   1.412   1_545  A
C388        C389   1.412       .  A
C388        C393   1.451   1_565  S
C389        C390   1.414       .  A
C389        C396   1.451       .  S
C390        C391   1.415       .  A
C391        C392   1.411       .  A
C391        C394   1.451       .  S
C392        C395   1.451   1_565  S
C393        N400   1.157       .  T
C394        N399   1.157       .  T
C395        N397   1.157       .  T
C396        N398   1.157       .  T
C401        C402   1.412       .  A
C401        C406   1.415       .  A
C402        C403   1.412       .  A
C402        C407   1.452       .  S
C403        C404   1.417       .  A
C403        C410   1.452       .  S
C404        C405   1.414       .  A
C405        C406   1.411       .  A
C405        C408   1.451       .  S
C406        C409   1.452       .  S
C407        N414   1.157       .  T
C408        N413   1.157       .  T
C409        N411   1.157       .  T
C410        N412   1.157       .  T
C415        C416   1.413       .  A
C415        C420   1.412       .  A
C416        C417   1.411       .  A
C416        C421   1.451       .  S
C417        C418   1.413       .  A
C417        C424   1.451       .  S
C418        C419   1.414       .  A
C419        C420   1.409       .  A
C419        C422   1.452       .  S
C420        C423   1.451       .  S
C421        N428   1.157       .  T
C422        N427   1.157       .  T
C423        N425   1.157       .  T
C424        N426   1.157       .  T
C429        C430   1.415   1_554  A
C429        C434   1.414       .  A
C430        C431   1.409       .  A
C430        C435   1.452       .  S
C431        C432   1.414   1_566  A
C431        C438   1.452       .  S
C432        C433   1.413   1_545  A
C433        C434   1.409       .  A
C433        C436   1.452   1_565  S
C434        C437   1.452       .  S
C435        N442   1.157       .  T
C436        N441   1.157       .  T
C437        N439   1.157       .  T
C438        N440   1.157   1_565  T
C443        C444   1.412       .  A
C443        C448   1.412       .  A
C444        C445   1.410       .  A
C444        C449   1.450       .  S
C445        C446   1.410       .  A
C445        C452   1.451       .  S
C446        C447   1.411       .  A
C447        C448   1.409       .  A
C447        C450   1.451       .  S
C448        C451   1.451       .  S
C449        N456   1.157       .  T
C450        N455   1.157       .  T
C451        N453   1.157       .  T
C452        N454   1.157       .  T
C457        C458   1.414       .  A
C457        C462   1.413       .  A
C458        C459   1.411       .  A
C458        C463   1.452       .  S
C459        C460   1.416       .  A
C459        C466   1.452       .  S
C460        C461   1.417       .  A
C461        C462   1.409       .  A
C461        C464   1.451       .  S
C462        C465   1.452       .  S
C463        N470   1.157       .  T
C464        N469   1.157       .  T
C465        N467   1.157       .  T
C466        N468   1.157       .  T
C471        C472   1.414       .  A
C471        C476   1.413       .  A
C472        C473   1.410       .  A
C472        C477   1.452       .  S
C473        C474   1.415       .  A
C473        C480   1.452       .  S
C474        C475   1.416       .  A
C475        C476   1.411       .  A
C475        C478   1.451       .  S
C476        C479   1.452       .  S
C477        N484   1.157       .  T
C478        N483   1.157       .  T
C479        N481   1.157       .  T
C480        N482   1.157       .  T
C485        C486   1.413       .  A
C485        C490   1.414       .  A
C486        C487   1.406       .  A
C486        C491   1.452       .  S
C487        C488   1.412       .  A
C487        C494   1.452       .  S
C488        C489   1.412       .  A
C489        C490   1.412       .  A
C489        C492   1.451       .  S
C490        C493   1.451       .  S
C491        N498   1.157       .  T
C492        N497   1.157       .  T
C493        N495   1.157       .  T
C494        N496   1.157       .  T
C499        C500   1.414       .  A
C499        C504   1.415       .  A
C500        C501   1.410   1_655  A
C500        C505   1.451       .  S
C501        C502   1.410       .  A
C501        C508   1.451       .  S
C502        C503   1.410       .  A
C503        C504   1.408   1_455  A
C503        C506   1.452       .  S
C504        C507   1.451       .  S
C505        N512   1.157       .  T
C506        N511   1.157       .  T
C507        N509   1.157       .  T
C508        N510   1.157       .  T
C513        C514   1.414       .  A
C513        C518   1.415       .  A
C514        C515   1.411       .  A
C514        C519   1.451       .  S
C515        C516   1.410       .  A
C515        C522   1.451       .  S
C516        C517   1.410       .  A
C517        C518   1.413       .  A
C517        C520   1.450       .  S
C518        C521   1.450   1_554  S
C519        N526   1.157       .  T
C520        N525   1.157       .  T
C521        N523   1.157       .  T
C522        N524   1.157       .  T
C527        C528   1.415       .  A
C527        C532   1.413       .  A
C528        C529   1.409       .  A
C528        C533   1.452       .  S
C529        C530   1.415       .  A
C529        C536   1.452       .  S
C530        C531   1.416       .  A
C531        C532   1.410       .  A
C531        C534   1.452       .  S
C532        C535   1.451       .  S
C533        N540   1.157       .  T
C534        N539   1.157       .  T
C535        N537   1.157       .  T
C536        N538   1.158       .  T
