geometry optimzed in LAMMPS
_audit_creation_date              2020-12-01 
_audit_creation_method            'lammps2cif' 
_symmetry_space_group_name_H-M    'P1' 
_symmetry_Int_Tables_number       1 
_symmetry_cell_setting            triclinic 
loop_ 
_symmetry_equiv_pos_as_xyz 
  x,y,z 
_cell_length_a                    50.31802671 
_cell_length_b                    50.23516313888394 
_cell_length_c                    74.89055942993564 
_cell_angle_alpha                 90.06225299123366 
_cell_angle_beta                  90.01447816595802 
_cell_angle_gamma                 120.04324879051272 
loop_ 
_atom_site_label 
_atom_site_type_symbol 
_atom_site_fract_x 
_atom_site_fract_y 
_atom_site_fract_z 
_atom_site_charge 
Zn1        Zn  0.45750827  0.08287107  0.59653619     1.49700
Zn2        Zn  0.48083763  0.14082686  0.57179786     1.49400
Zn3        Zn  0.42004527  0.07702611  0.56063064     1.49100
Zn4        Zn  0.42041692  0.11598283  0.59399610     1.49500
O5          O  0.44475112  0.10394547  0.58036833    -1.84300
O6          O  0.50118888  0.09639208  0.59175926    -0.74900
O7          O  0.48470132  0.13561201  0.54595186    -0.74700
O8          O  0.41087081  0.03366617  0.56592746    -0.74200
O9          O  0.02024458  0.14310416  0.58083408    -0.74900
O10         O  0.43293383  0.03755908  0.59220636    -0.74500
O11         O  0.44457592  0.09199997  0.53662217    -0.75100
O12         O  0.37630122  0.08735939  0.58882339    -0.74500
O13         O  0.47551884  0.17867495  0.57357746    -0.75200
O14         O  0.37668461  0.07220741  0.56093983    -0.74600
O15         O  0.42850837  0.15682708  0.58522089    -0.75100
O16         O  0.42830935  0.11717756  0.62077552    -0.75000
O17         O  0.45378919  0.09183317  0.62234145    -0.74800
C18         C  0.02332942  0.12056164  0.58601482     0.77000
C19         C  0.47057672  0.11617740  0.53364265     0.77500
C20         C  0.41632461  0.02131734  0.57923532     0.76500
C21         C  0.36218974  0.07424938  0.57446956     0.76800
C22         C  0.45128124  0.17946418  0.57774918     0.78000
C23         C  0.44152387  0.10571257  0.62992854     0.77000
Zn24       Zn  0.05512640  0.13045953  0.43356042     1.49700
Zn25       Zn  0.08785332  0.19940550  0.44308607     1.49400
Zn26       Zn  0.10469038  0.17764850  0.40757560     1.49100
Zn27       Zn  0.04089898  0.17429165  0.41045975     1.49500
O28         O  0.07214573  0.17070055  0.42357976    -1.84300
O29         O  0.04285015  0.12901717  0.45939382    -0.74900
O30         O  0.13473756  0.22065304  0.44363674    -0.74700
O31         O  0.11372607  0.14340853  0.40822752    -0.74200
O32         O  0.06461621  0.17843388  0.46599913    -0.74900
O33         O  0.08239632  0.11241312  0.42926812    -0.74500
O34         O  0.14293409  0.21440177  0.41521483    -0.75100
O35         O  0.04707272  0.17271782  0.38392403    -0.74500
O36         O  0.07902234  0.23324317  0.43794499    -0.75200
O37         O  0.09461149  0.18078487  0.38220230    -0.74600
O38         O  0.04431646  0.21542380  0.41607460    -0.75100
O39         O  0.49811261  0.13744122  0.41475907    -0.75000
O40         O  0.51383570  0.10409675  0.42124576    -0.74800
C41         C  0.04677248  0.15030720  0.47017684     0.77000
C42         C  0.15286980  0.22726220  0.43030574     0.77500
C43         C  0.10369103  0.11952330  0.41784090     0.76500
C44         C  0.06993973  0.17621555  0.37480407     0.76800
C45         C  0.06177516  0.23671934  0.42690686     0.78000
C46         C  0.49282834  0.11013745  0.41735443     0.77000
Zn47       Zn  0.07929927  0.40948167  0.40317670     1.49700
Zn48       Zn  0.08549676  0.46050987  0.42948560     1.49400
Zn49       Zn  0.11990947  0.42595949  0.43838856     1.49100
Zn50       Zn  0.14195384  0.47309863  0.40514268     1.49500
O51         O  0.10709274  0.44220207  0.41883413    -1.84300
O52         O  0.03606593  0.40100878  0.40580727    -0.74900
O53         O  0.09813917  0.47286207  0.45501950    -0.74700
O54         O  0.09558108  0.37903083  0.43811349    -0.74200
O55         O  0.03976982  0.43346477  0.42716065    -0.74900
O56         O  0.07766014  0.37036092  0.41026611    -0.74500
O57         O  0.12161577  0.44705633  0.46217402    -0.75100
O58         O  0.18012629  0.47103201  0.41181777    -0.74500
O59         O  0.09976844  0.00113890  0.41659432    -0.75200
O60         O  0.16302776  0.43675811  0.43391155    -0.74600
O61         O  0.14815168  0.01598597  0.40901586    -0.75100
O62         O  0.13412049  0.46521692  0.37841022    -0.75000
O63         O  0.09111292  0.41997493  0.37732881    -0.74800
C64         C  0.02376082  0.41134785  0.41649443     0.77000
C65         C  0.11311170  0.46639979  0.46616400     0.77500
C66         C  0.08248233  0.36073162  0.42498555     0.76500
C67         C  0.18417387  0.45456895  0.42328662     0.76800
C68         C  0.12680543  0.02191086  0.41245771     0.78000
C69         C  0.11291968  0.44313686  0.36949329     0.77000
Zn70       Zn  0.20797819  0.08347525  0.59285613     1.49700
Zn71       Zn  0.13709204  0.04709621  0.59454994     1.49400
Zn72       Zn  0.16848518  0.08595011  0.55959962     1.49100
Zn73       Zn  0.17116076  0.02438355  0.56861274     1.49500
O74         O  0.17142812  0.06040929  0.57856752    -1.84300
O75         O  0.19948344  0.07733989  0.61952457    -0.74900
O76         O  0.11770038  0.07323335  0.59186835    -0.74700
O77         O  0.20696181  0.12895387  0.56036905    -0.74200
O78         O  0.14877189  0.04865856  0.62010947    -0.74900
O79         O  0.22659892  0.12810460  0.58691000    -0.74500
O80         O  0.13483724  0.09585222  0.56561064    -0.75100
O81         O  0.16376933  0.02263329  0.54249947    -0.74500
O82         O  0.10640562  0.00367384  0.58952604    -0.75200
O83         O  0.15920234  0.06304004  0.53505317    -0.74600
O84         O  0.13389748  0.48485959  0.57781830    -0.75100
O85         O  0.21259751  0.02665958  0.57152495    -0.75000
O86         O  0.23865829  0.07037868  0.58682185    -0.74800
C87         C  0.17444172  0.06225042  0.62812109     0.77000
C88         C  0.11843037  0.09097978  0.57954123     0.77500
C89         C  0.22528511  0.14280231  0.57340545     0.76500
C90         C  0.15851247  0.03789599  0.53094054     0.76800
C91         C  0.10876670  0.48133445  0.58412468     0.78000
C92         C  0.23741855  0.04757974  0.57858947     0.77000
Zn93       Zn  0.33670364  0.37104641  0.40934971     1.49700
Zn94       Zn  0.38105787  0.42875939  0.43275519     1.49400
Zn95       Zn  0.33771211  0.43450152  0.40578954     1.49100
Zn96       Zn  0.31219924  0.39624243  0.44153989     1.49500
O97         O  0.34134727  0.40700911  0.42213988    -1.84300
O98         O  0.37551224  0.36792571  0.41200620    -0.74900
O99         O  0.40010124  0.47399146  0.42958424    -0.74700
O100        O  0.33003839  0.41867210  0.38083854    -0.74200
O101        O  0.40789818  0.41550396  0.42156051    -0.74900
O102        O  0.33103537  0.37504743  0.38275330    -0.74500
O103        O  0.37459242  0.47640950  0.40598741    -0.75100
O104        O  0.29104030  0.42207848  0.44082154    -0.74500
O105        O  0.38043398  0.41745578  0.45835617    -0.75200
O106        O  0.30349930  0.44040577  0.41323865    -0.74600
O107        O  0.33105090  0.39411689  0.46544166    -0.75100
O108        O  0.27892678  0.35354033  0.43710853    -0.75000
O109        O  0.29777578  0.33322130  0.41799441    -0.74800
C110        C  0.40260242  0.38957608  0.41569077     0.77000
C111        C  0.39629451  0.48914335  0.41724058     0.77500
C112        C  0.32830121  0.39495879  0.37361684     0.76500
C113        C  0.28798014  0.43607707  0.42740893     0.76800
C114        C  0.35888925  0.40271593  0.46945355     0.78000
C115        C  0.27622363  0.33085971  0.42808672     0.77000
Zn116      Zn  0.42786389  0.32817901  0.59186263     1.49700
Zn117      Zn  0.36585139  0.33067058  0.58965434     1.49400
Zn118      Zn  0.42389646  0.37432815  0.56701513     1.49100
Zn119      Zn  0.38702028  0.30555574  0.55637986     1.49500
O120        O  0.40060294  0.33373711  0.57639427    -1.84300
O121        O  0.41518903  0.32560572  0.61747943    -0.74900
O122        O  0.36336310  0.36960033  0.58497552    -0.74700
O123        O  0.46954114  0.39153995  0.56832100    -0.74200
O124        O  0.37350819  0.33017287  0.61632083    -0.74900
O125        O  0.47156632  0.36269507  0.59007074    -0.74500
O126        O  0.41347213  0.40136624  0.58064689    -0.75100
O127        O  0.38489312  0.32769785  0.53349458    -0.74500
O128        O  0.32684609  0.28995727  0.58323173    -0.75200
O129        O  0.41032258  0.37632895  0.54229132    -0.74600
O130        O  0.34367285  0.27245284  0.56118988    -0.75100
O131        O  0.41205750  0.28316707  0.55589852    -0.75000
O132        O  0.42915642  0.29108110  0.58399802    -0.74800
C133        C  0.39378184  0.32771236  0.62523524     0.77000
C134        C  0.38659827  0.39667775  0.58356802     0.77500
C135        C  0.48482110  0.38516081  0.57932134     0.76500
C136        C  0.39406875  0.35615212  0.53071522     0.76800
C137        C  0.32250996  0.26911195  0.57185054     0.78000
C138        C  0.42477243  0.27739096  0.56902978     0.77000
Zn139      Zn  0.03471558  0.24688324  0.07350080     1.49700
Zn140      Zn  0.46444971  0.21683049  0.07260000     1.49400
Zn141      Zn  0.99637441  0.18994326  0.09871923     1.49100
Zn142      Zn  0.00095024  0.25536821  0.10736369     1.49500
O143        O  0.99921187  0.22715004  0.08856661    -1.84300
O144        O  0.02543321  0.23799393  0.04729161    -0.74900
O145        O  0.43223495  0.17346627  0.07756994    -0.74700
O146        O  0.03441430  0.18673730  0.09237466    -0.74200
O147        O  0.47483263  0.22070652  0.04603001    -0.74900
O148        O  0.06378066  0.23315035  0.08041130    -0.74500
O149        O  0.45491376  0.15288678  0.09347663    -0.75100
O150        O  0.00980738  0.24164634  0.13174734    -0.74500
O151        O  0.44609745  0.24279809  0.07908533    -0.75200
O152        O  0.00137419  0.19474158  0.12508004    -0.74600
O153        O  0.46286799  0.25985141  0.10658538    -0.75100
O154        O  0.03453081  0.29891920  0.10131473    -0.75000
O155        O  0.05489693  0.29213174  0.07669455    -0.74800
C156        C  0.50007845  0.22877424  0.03797823     0.77000
C157        C  0.43132163  0.15089820  0.08582613     0.77500
C158        C  0.06045676  0.20837030  0.08699220     0.76500
C159        C  0.00850871  0.21639047  0.13619857     0.76800
C160        C  0.44542793  0.25648569  0.09328540     0.78000
C161        C  0.05313655  0.30980690  0.08822149     0.77000
Zn162      Zn  0.08281787  0.20582310  0.26348508     1.49700
Zn163      Zn  0.05086755  0.13566813  0.26312935     1.49400
Zn164      Zn  0.02270041  0.16928635  0.24128756     1.49100
Zn165      Zn  0.08553273  0.17274724  0.22808156     1.49500
O166        O  0.06044436  0.17068364  0.24862845    -1.84300
O167        O  0.07707402  0.19582746  0.28935235    -0.74900
O168        O  0.00808114  0.10323088  0.25756978    -0.74700
O169        O  0.01994781  0.20580139  0.25110751    -0.74200
O170        O  0.05526521  0.14503456  0.28971077    -0.74900
O171        O  0.06914785  0.23558175  0.25857730    -0.74500
O172        O  0.48555094  0.12462621  0.24211677    -0.75100
O173        O  0.06814074  0.18148330  0.20490344    -0.74500
O174        O  0.07764206  0.11858396  0.25587743    -0.75200
O175        O  0.02523473  0.17784511  0.21537000    -0.74600
O176        O  0.08978396  0.13408364  0.22767015    -0.75100
O177        O  0.12967784  0.20670938  0.23216450    -0.75000
O178        O  0.12727347  0.22539506  0.25860220    -0.74800
C179        C  0.06659803  0.17072264  0.29785646     0.77000
C180        C  0.48489335  0.10060763  0.24829813     0.77500
C181        C  0.04304128  0.23215944  0.25469965     0.76500
C182        C  0.04369470  0.18301362  0.20254601     0.76800
C183        C  0.08945034  0.11786019  0.24096275     0.78000
C184        C  0.14271569  0.22434092  0.24548372     0.77000
Zn185      Zn  0.32742681  0.36153111  0.23790328     1.49700
Zn186      Zn  0.29075416  0.38318222  0.26224130     1.49400
Zn187      Zn  0.36080915  0.41943040  0.26248744     1.49100
Zn188      Zn  0.32575152  0.42290520  0.22809246     1.49500
O189        O  0.32610969  0.39686321  0.24735096    -1.84300
O190        O  0.29295099  0.32188621  0.24797234    -0.74900
O191        O  0.30023756  0.38438725  0.28829324    -0.74700
O192        O  0.39315034  0.40955974  0.25609889    -0.74200
O193        O  0.26196105  0.33966577  0.25616418    -0.74900
O194        O  0.37076427  0.36756891  0.23920188    -0.74500
O195        O  0.35112452  0.41046048  0.28876924    -0.75100
O196        O  0.36694840  0.46375516  0.22850855    -0.74500
O197        O  0.27160135  0.40933022  0.25854710    -0.75200
O198        O  0.37950839  0.46385588  0.25717164    -0.74600
O199        O  0.29429053  0.43571679  0.23399808    -0.75100
O200        O  0.31433061  0.39819702  0.20402645    -0.75000
O201        O  0.31570272  0.35639708  0.21238158    -0.74800
C202        C  0.26644068  0.31767536  0.25192863     0.77000
C203        C  0.32544559  0.39589689  0.29679710     0.77500
C204        C  0.39451426  0.38904313  0.24687915     0.76500
C205        C  0.38353447  0.47736273  0.24220572     0.76800
C206        C  0.27541734  0.42931010  0.24687048     0.78000
C207        C  0.31083433  0.37157035  0.20060524     0.77000
Zn208      Zn  0.24334912  0.24684208  0.10875962     1.49700
Zn209      Zn  0.24571089  0.28144751  0.07238882     1.49400
Zn210      Zn  0.30503415  0.30877233  0.09652684     1.49100
Zn211      Zn  0.28279947  0.24794112  0.07463855     1.49500
O212        O  0.26906326  0.27112102  0.08843784    -1.84300
O213        O  0.19944939  0.23724442  0.10469246    -0.74900
O214        O  0.25928593  0.32572152  0.07521535    -0.74700
O215        O  0.29892278  0.31485833  0.12188017    -0.74200
O216        O  0.20077960  0.25675930  0.07787583    -0.74900
O217        O  0.25884737  0.27283597  0.13253083    -0.74500
O218        O  0.30715267  0.34695154  0.08560482    -0.75100
O219        O  0.32610806  0.26065455  0.08126620    -0.74500
O220        O  0.25261114  0.27559875  0.04661153    -0.75200
O221        O  0.34418594  0.30571771  0.09513733    -0.74600
O222        O  0.28150723  0.25396728  0.04791612    -0.75100
O223        O  0.25635214  0.20342946  0.08061025    -0.75000
O224        O  0.23843469  0.20312430  0.10791034    -0.74800
C225        C  0.18589907  0.24135539  0.09149842     0.77000
C226        C  0.28462881  0.34922768  0.07955926     0.77500
C227        C  0.28079926  0.30064229  0.13468083     0.76500
C228        C  0.34778108  0.28395384  0.08906040     0.76800
C229        C  0.26779995  0.26493166  0.03885320     0.78000
C230        C  0.24184604  0.18898287  0.09457656     0.77000
Zn231      Zn  0.24154854  0.02612438  0.10400726     1.49700
Zn232      Zn  0.25568449  0.00040308  0.06841044     1.49400
Zn233      Zn  0.20716772  0.45701265  0.09503740     1.49100
Zn234      Zn  0.19226421  0.99986475  0.07200688     1.49500
O235        O  0.22474608  0.99696228  0.08457847    -1.84300
O236        O  0.28877240  0.04800962  0.10317912    -0.74900
O237        O  0.26368084  0.46606506  0.07052519    -0.74700
O238        O  0.19129791  0.45687387  0.11960545    -0.74200
O239        O  0.29480739  0.03727661  0.07510908    -0.74900
O240        O  0.21869059  0.00659682  0.12761848    -0.74500
O241        O  0.23653967  0.44031858  0.09422491    -0.75100
O242        O  0.15054259  0.46047264  0.07737736    -0.74500
O243        O  0.24407445  0.00218001  0.04301352    -0.75200
O244        O  0.16950385  0.42915107  0.08172395    -0.74600
O245        O  0.19898869  0.00008206  0.04488180    -0.75100
O246        O  0.19396185  0.04082829  0.07916798    -0.75000
O247        O  0.23147936  0.05903088  0.09935473    -0.74800
C248        C  0.30587062  0.05224486  0.08954863     0.77000
C249        C  0.25639064  0.44520211  0.08218976     0.77500
C250        C  0.19640443  0.47809529  0.13071713     0.76500
C251        C  0.14700488  0.43353653  0.07915769     0.76800
C252        C  0.22079097  0.00113959  0.03557668     0.78000
C253        C  0.21233023  0.06219906  0.08981596     0.77000
Zn254      Zn  0.13361790  0.47594635  0.25604245     1.49700
Zn255      Zn  0.07113531  0.41318074  0.25921933     1.49400
Zn256      Zn  0.08375970  0.45241911  0.22375327     1.49100
Zn257      Zn  0.11851917  0.41693165  0.23153348     1.49500
O258        O  0.10210259  0.44022261  0.24270805    -1.84300
O259        O  0.12645543  0.46978164  0.28303524    -0.74900
O260        O  0.03198639  0.41086798  0.25318455    -0.74700
O261        O  0.09492293  0.99619159  0.22796246    -0.74200
O262        O  0.08239632  0.42586703  0.28463169    -0.74900
O263        O  0.13288380  0.01473149  0.24787435    -0.74500
O264        O  0.03652455  0.42774988  0.22529042    -0.75100
O265        O  0.12622257  0.42632583  0.20539889    -0.74500
O266        O  0.06274584  0.37019564  0.25772606    -0.75200
O267        O  0.10323153  0.45316949  0.19933712    -0.74600
O268        O  0.09311257  0.37099237  0.23605873    -0.75100
O269        O  0.16027951  0.43242020  0.24099838    -0.75000
O270        O  0.17543548  0.47934167  0.25193196    -0.74800
C271        C  0.10497303  0.44852544  0.29222542     0.77000
C272        C  0.02023157  0.41505387  0.23918465     0.77500
C273        C  0.11479606  0.01831799  0.23737508     0.76500
C274        C  0.12021701  0.44214211  0.19461439     0.76800
C275        C  0.07251389  0.35650185  0.24780248     0.78000
C276        C  0.18097915  0.45819353  0.24706714     0.77000
Zn277      Zn  0.41986829  0.36400083  0.73768485     1.49700
Zn278      Zn  0.37967958  0.29384194  0.73605121     1.49400
Zn279      Zn  0.41770788  0.32637812  0.77156438     1.49100
Zn280      Zn  0.35828434  0.33083854  0.75997596     1.49500
O281        O  0.39370628  0.32857687  0.75168061    -1.84300
O282        O  0.41362355  0.35616508  0.71106265    -0.74900
O283        O  0.40488752  0.27362797  0.73992467    -0.74700
O284        O  0.46065043  0.36564592  0.77227459    -0.74200
O285        O  0.38269263  0.30557071  0.71030812    -0.74900
O286        O  0.46380883  0.37994600  0.74389351    -0.74500
O287        O  0.42797764  0.29318357  0.76589452    -0.75100
O288        O  0.35344814  0.32241896  0.78591801    -0.74500
O289        O  0.33560669  0.26477473  0.74058116    -0.75200
O290        O  0.39229726  0.31652442  0.79512478    -0.74600
O291        O  0.31817576  0.29525157  0.75028699    -0.75100
O292        O  0.36535435  0.37441379  0.75739603    -0.75000
O293        O  0.41123463  0.39720425  0.74433669    -0.74800
C294        C  0.39766382  0.33126690  0.70240454     0.77000
C295        C  0.42293672  0.27565053  0.75244680     0.77500
C296        C  0.47639503  0.38194129  0.75896275     0.76500
C297        C  0.36715589  0.31644159  0.79812398     0.76800
C298        C  0.31365070  0.26906836  0.74505319     0.78000
C299        C  0.38910995  0.39851756  0.75165027     0.77000
Zn300      Zn  0.28700061  0.25152328  0.92662230     1.49700
Zn301      Zn  0.24902322  0.24789939  0.89160318     1.49400
Zn302      Zn  0.25002764  0.28512485  0.92640518     1.49100
Zn303      Zn  0.30987358  0.31004011  0.90255495     1.49500
O304        O  0.27390037  0.27371080  0.91155199    -1.84300
O305        O  0.26093682  0.20654735  0.92216632    -0.74900
O306        O  0.20679393  0.24478305  0.89182626    -0.74700
O307        O  0.25613099  0.28110189  0.95291500    -0.74200
O308        O  0.23780418  0.20405740  0.89640952    -0.74900
O309        O  0.28443583  0.25877946  0.95270868    -0.74500
O310        O  0.20550554  0.25862630  0.91999259    -0.75100
O311        O  0.30600564  0.34793332  0.90574235    -0.74500
O312        O  0.27328427  0.26193228  0.86767586    -0.75200
O313        O  0.26243534  0.32908142  0.92123018    -0.74600
O314        O  0.31393077  0.30560765  0.87656213    -0.75100
O315        O  0.34916469  0.31334736  0.91191618    -0.75000
O316        O  0.33068617  0.26530005  0.92166015    -0.74800
C317        C  0.24280218  0.19107950  0.90955025     0.77000
C318        C  0.19196047  0.24602210  0.90539922     0.77500
C319        C  0.27100524  0.27057185  0.96122482     0.76500
C320        C  0.28488945  0.35111148  0.91306426     0.76800
C321        C  0.29934261  0.28583162  0.86449381     0.78000
C322        C  0.35298424  0.29128719  0.91704844     0.77000
Zn323      Zn  0.20761479  0.08584323  0.76240822     1.49700
Zn324      Zn  0.16042067  0.08821215  0.73748099     1.49400
Zn325      Zn  0.16381233  0.02635221  0.74098787     1.49100
Zn326      Zn  0.13922053  0.04901094  0.77311441     1.49500
O327        O  0.16697618  0.06191762  0.75326014    -1.84300
O328        O  0.22427454  0.13145603  0.76036950    -0.74900
O329        O  0.15938694  0.07498442  0.71207140    -0.74700
O330        O  0.20248341  0.02410006  0.74657566    -0.74200
O331        O  0.19441895  0.13230538  0.73885212    -0.74900
O332        O  0.23450541  0.07462874  0.74914730    -0.74500
O333        O  0.16452495  0.03356326  0.71421510    -0.75100
O334        O  0.10507910  0.00585173  0.76850886    -0.74500
O335        O  0.12323684  0.08980625  0.74540196    -0.75200
O336        O  0.12357135  0.48745549  0.74795931    -0.74600
O337        O  0.11940535  0.07589241  0.77393699    -0.75100
O338        O  0.16115754  0.04725272  0.79587424    -0.75000
O339        O  0.20982246  0.07352612  0.78747242    -0.74800
C340        C  0.21716540  0.14617414  0.74935760     0.77000
C341        C  0.16273260  0.05383460  0.70487121     0.77500
C342        C  0.22961321  0.04736840  0.74741864     0.76500
C343        C  0.10199737  0.48391114  0.75849589     0.76800
C344        C  0.11217692  0.08772576  0.76102213     0.78000
C345        C  0.18957299  0.05713949  0.79895567     0.77000
Zn346      Zn  0.20106728  0.00481103  0.92106013     1.49700
Zn347      Zn  0.26356801  0.00502742  0.92656087     1.49400
Zn348      Zn  0.22580539  0.47763405  0.89070960     1.49100
Zn349      Zn  0.26107181  0.04765009  0.89785373     1.49500
O350        O  0.23737146  0.00836623  0.90915984    -1.84300
O351        O  0.20445665  0.50225197  0.94844649    -0.74900
O352        O  0.26851658  0.46956725  0.92038304    -0.74700
O353        O  0.18264243  0.44487221  0.89496593    -0.74200
O354        O  0.24727056  0.50028879  0.95130310    -0.74900
O355        O  0.16324418  0.46521292  0.91369853    -0.74500
O356        O  0.25132011  0.45621477  0.89256980    -0.75100
O357        O  0.25120151  0.04578511  0.87192357    -0.74500
O358        O  0.30601542  0.04111695  0.92661260    -0.75200
O359        O  0.22405278  0.49536141  0.86644064    -0.74600
O360        O  0.30659557  0.06672775  0.90230521    -0.75100
O361        O  0.24654302  0.07509677  0.90664343    -0.75000
O362        O  0.19852252  0.04330069  0.91582492    -0.74800
C363        C  0.22391365  0.49973042  0.95816956     0.77000
C364        C  0.26461697  0.45348991  0.90645148     0.77500
C365        C  0.16024725  0.44317066  0.90376507     0.76500
C366        C  0.23532959  0.02370649  0.86130331     0.76800
C367        C  0.32031556  0.06239787  0.91531140     0.78000
C368        C  0.22001252  0.06990979  0.91116326     0.77000
Zn369      Zn  0.03236172  0.25312044  0.89243083     1.49700
Zn370      Zn  0.00815756  0.20540205  0.92532546     1.49400
Zn371      Zn  0.00791498  0.26861224  0.92812973     1.49100
Zn372      Zn  0.46390718  0.21871906  0.90158670     1.49500
O373        O  0.00413170  0.23681677  0.91226388    -1.84300
O374        O  0.06465939  0.24196974  0.89653111    -0.74900
O375        O  0.00871013  0.21316585  0.95218875    -0.74700
O376        O  0.04507561  0.30758140  0.92139869    -0.74200
O377        O  0.04797929  0.20625070  0.91770511    -0.74900
O378        O  0.05507781  0.30049127  0.89342467    -0.74500
O379        O  0.00832928  0.25719561  0.95378576    -0.75100
O380        O  0.44595153  0.24637103  0.90288467    -0.74500
O381        O  0.46922858  0.16371049  0.92098589    -0.75200
O382        O  0.47378722  0.27759376  0.92482076    -0.74600
O383        O  0.43701637  0.18088613  0.91485738    -0.75100
O384        O  0.46305366  0.20447565  0.87661805    -0.75000
O385        O  0.01148842  0.23103859  0.86864441    -0.74800
C386        C  0.06818844  0.22311798  0.90614008     0.77000
C387        C  0.00761896  0.23411571  0.96129226     0.77500
C388        C  0.06005068  0.31806946  0.90697645     0.76500
C389        C  0.45164482  0.26797025  0.91382352     0.76800
C390        C  0.44210106  0.15941546  0.91920057     0.78000
C391        C  0.48340682  0.21075283  0.86477402     0.77000
Zn392      Zn  0.44694247  0.08568434  0.77601103     1.49700
Zn393      Zn  0.47161579  0.13496151  0.74374721     1.49400
Zn394      Zn  0.40842543  0.07226363  0.74004665     1.49100
Zn395      Zn  0.41281751  0.12029284  0.76678046     1.49500
O396        O  0.43559752  0.10324578  0.75640659    -1.84300
O397        O  0.99108899  0.09658782  0.77183358    -0.74900
O398        O  0.46597901  0.12778189  0.71668560    -0.74700
O399        O  0.40789150  0.03382548  0.74620764    -0.74200
O400        O  0.01084858  0.13371569  0.75157836    -0.74900
O401        O  0.42198767  0.03805926  0.77481877    -0.74500
O402        O  0.42119888  0.08425700  0.71461241    -0.75100
O403        O  0.36694681  0.09289862  0.76450027    -0.74500
O404        O  0.47450364  0.17656613  0.74856598    -0.75200
O405        O  0.36497363  0.06294471  0.74215066    -0.74600
O406        O  0.42514701  0.15955998  0.75491045    -0.75100
O407        O  0.42624076  0.13377396  0.79184269    -0.75000
O408        O  0.45042516  0.10888090  0.79967953    -0.74800
C409        C  0.01355375  0.11533324  0.76222907     0.77000
C410        C  0.44440187  0.10679280  0.70735140     0.77500
C411        C  0.41147282  0.02216246  0.76046278     0.76500
C412        C  0.35174304  0.07194526  0.75302923     0.76800
C413        C  0.45205939  0.18121914  0.75135333     0.78000
C414        C  0.44244000  0.12893033  0.80294630     0.77000
C415        C  0.47386348  0.19230898  0.84788902    -0.06200
C416        C  0.99371964  0.18296579  0.84115097    -0.17400
C417        C  0.48380244  0.16214887  0.82579862     0.10900
C418        C  0.45337489  0.14897273  0.81919709    -0.06200
C419        C  0.43414926  0.15892267  0.82662755    -0.17400
C420        C  0.44405077  0.18055840  0.84060473     0.11000
S421        S  0.01260366  0.15469445  0.81696270    -0.32400
S422        S  0.41882697  0.19411206  0.84834859    -0.32400
H423        H  0.39420638  0.17649567  0.83670456     0.29000
H424        H  0.00553153  0.15797713  0.79920569     0.29000
H425        H  0.01654526  0.19168134  0.84661182     0.19600
H426        H  0.41132155  0.15005277  0.82117889     0.19600
C427        C  0.08372855  0.35140305  0.90611941    -0.06200
C428        C  0.09682833  0.36435569  0.88949781    -0.17400
C429        C  0.12011205  0.39514312  0.88801236     0.10900
C430        C  0.13093848  0.41373588  0.90347281    -0.06200
C431        C  0.11660822  0.40164976  0.91982618    -0.17400
C432        C  0.09376945  0.37084536  0.92146697     0.11000
S433        S  0.13501199  0.40939522  0.86600949    -0.32400
S434        S  0.08075421  0.35797348  0.94391826    -0.32400
H435        H  0.08874650  0.33484028  0.94324903     0.29000
H436        H  0.14310640  0.44005810  0.86956479     0.29000
H437        H  0.08913055  0.35038238  0.87751505     0.19600
H438        H  0.12500394  0.41567405  0.93178109     0.19600
C439        C  0.35344751  0.08277688  0.91764768    -0.06200
C440        C  0.36384377  0.09980554  0.93350672    -0.17400
C441        C  0.39444752  0.12299374  0.93536331     0.10900
C442        C  0.41508428  0.12896239  0.92117296    -0.06200
C443        C  0.40528684  0.11011229  0.90598180    -0.17400
C444        C  0.37465056  0.08696014  0.90409475     0.11000
S445        S  0.40525061  0.14617571  0.95536744    -0.32400
S446        S  0.36373744  0.06445579  0.88384599    -0.32400
H447        H  0.33953225  0.03767558  0.89145068     0.29000
H448        H  0.43687556  0.15664953  0.95418659     0.29000
H449        H  0.34766420  0.09627978  0.94406564     0.19600
H450        H  0.42101417  0.11498184  0.89494574     0.19600
C451        C  0.09019276  0.09911805  0.76367453    -0.06200
C452        C  0.08961331  0.11934594  0.75085510    -0.17400
C453        C  0.06616075  0.12666977  0.75046373     0.10900
C454        C  0.04240410  0.11378023  0.76333290    -0.06200
C455        C  0.04469612  0.09588535  0.77710293    -0.17400
C456        C  0.06811148  0.08859658  0.77749580     0.11000
S457        S  0.06727894  0.15109690  0.73256729    -0.32400
S458        S  0.06687300  0.06401286  0.79535160    -0.32400
H459        H  0.09657382  0.08532353  0.80140407     0.29000
H460        H  0.54166135  0.13124755  0.72530261     0.29000
H461        H  0.10690842  0.12859052  0.74046836     0.19600
H462        H  0.02742479  0.08645162  0.78749336     0.19600
C463        C  0.31825679  0.05876844  0.75163543    -0.06200
C464        C  0.30554171  0.05644850  0.73459423    -0.17400
C465        C  0.27503274  0.04930748  0.73255334     0.10900
C466        C  0.25666479  0.04373331  0.74783089    -0.06200
C467        C  0.26864189  0.04371131  0.76473193    -0.17400
C468        C  0.29917442  0.05107398  0.76681040     0.11000
S469        S  0.26178360  0.05069771  0.71036947    -0.32400
S470        S  0.31262474  0.05135072  0.78917096    -0.32400
H471        H  0.33402546  0.04246019  0.78419458     0.29000
H472        H  0.23031986  0.03172839  0.71394526     0.29000
H473        H  0.31999915  0.06221194  0.72285811     0.19600
H474        H  0.25468516  0.03995278  0.77652568     0.19600
C475        C  0.20007546  0.04855746  0.81555392    -0.06200
C476        C  0.23097004  0.06708475  0.82077998    -0.17400
C477        C  0.24376005  0.05859376  0.83474380     0.10900
C478        C  0.22544821  0.03082053  0.84409523    -0.06200
C479        C  0.19475915  0.01200020  0.83875038    -0.17400
C480        C  0.18184984  0.02061402  0.82486669     0.11000
S481        S  0.28387541  0.08394960  0.83961378    -0.32400
S482        S  0.14068946  0.49478108  0.82054128    -0.32400
H483        H  0.13328417  0.01634392  0.82307991     0.29000
H484        H  0.28962092  0.06045784  0.84496646     0.29000
H485        H  0.24561055  0.08830862  0.81372420     0.19600
H486        H  0.17881810  0.49093092  0.84676040     0.19600
C487        C  0.38353338  0.29456955  0.91673656    -0.06200
C488        C  0.39554351  0.29347766  0.90005365    -0.17400
C489        C  0.41932494  0.28684169  0.89869374     0.10900
C490        C  0.43126748  0.28110237  0.91436846    -0.06200
C491        C  0.42101351  0.28490918  0.93110397    -0.17400
C492        C  0.39713434  0.29140190  0.93243199     0.11000
S493        S  0.43262201  0.28493403  0.87662173    -0.32400
S494        S  0.38349967  0.29324696  0.95442283    -0.32400
H495        H  0.37078089  0.31156816  0.94957938     0.29000
H496        H  0.46308459  0.29497492  0.88180598     0.29000
H497        H  0.38498434  0.29577283  0.88797092     0.19600
H498        H  0.43027622  0.28087207  0.94320903     0.19600
C499        C  0.15833931  0.23353942  0.90431475    -0.06200
C500        C  0.14602844  0.23900166  0.88891789    -0.17400
C501        C  0.11566211  0.23316879  0.88856922     0.10900
C502        C  0.09737268  0.22250464  0.90424923    -0.06200
C503        C  0.10878731  0.21406469  0.91898304    -0.17400
C504        C  0.13871754  0.21883449  0.91901637     0.11000
S505        S  0.10078027  0.23930605  0.86792464    -0.32400
S506        S  0.15045328  0.20539278  0.93813288    -0.32400
H507        H  0.17076678  0.19904155  0.92860941     0.29000
H508        H  0.12709725  0.24823619  0.85743669     0.29000
H509        H  0.16068730  0.24914924  0.87740659     0.19600
H510        H  0.09473948  0.20463928  0.93080668     0.19600
C511        C  0.21487984  0.09603713  0.91015771    -0.06200
C512        C  0.21362419  0.11001763  0.92604595    -0.17400
C513        C  0.21981159  0.14044335  0.92604678     0.10900
C514        C  0.22824296  0.15732450  0.90988500    -0.06200
C515        C  0.22595422  0.14205712  0.89379425    -0.17400
C516        C  0.21923004  0.11155182  0.89376793     0.11000
S517        S  0.21752700  0.15666552  0.94709886    -0.32400
S518        S  0.21926954  0.09448887  0.87253513    -0.32400
H519        H  0.20072390  0.06376189  0.87797529     0.29000
H520        H  0.20862999  0.17673563  0.93965238     0.29000
H521        H  0.20991345  0.09798094  0.93861242     0.19600
H522        H  0.23153989  0.15450615  0.88127462     0.19600
C523        C  0.28546258  0.38060616  0.91163046    -0.06200
C524        C  0.28651938  0.39288461  0.89463024    -0.17400
C525        C  0.28141788  0.41771441  0.89238183     0.10900
C526        C  0.27435441  0.43008272  0.90743618    -0.06200
C527        C  0.27526637  0.41878007  0.92448815    -0.17400
C528        C  0.28104169  0.39462716  0.92672689     0.11000
S529        S  0.28460594  0.43260057  0.87013488    -0.32400
S530        S  0.28229040  0.38264062  0.94923287    -0.32400
H531        H  0.30334671  0.37266484  0.94561274     0.29000
H532        H  0.29891928  0.46356062  0.87558440     0.29000
H533        H  0.29037806  0.38244747  0.88296958     0.19600
H534        H  0.27063218  0.42826360  0.93631324     0.19600
C535        C  0.07197914  0.45442849  0.75916305    -0.06200
C536        C  0.05398284  0.44782454  0.77474107    -0.17400
C537        C  0.02340654  0.42373580  0.77534827     0.10900
C538        C  0.01031953  0.40467613  0.76025395    -0.06200
C539        C  0.02898983  0.40974240  0.74518276    -0.17400
C540        C  0.05921865  0.43443871  0.74433495     0.11000
S541        S  0.00166919  0.42054774  0.79514309    -0.32400
S542        S  0.07891779  0.44051680  0.72335154    -0.32400
H543        H  0.08608592  0.47134467  0.72190263     0.29000
H544        H  0.47687756  0.41820924  0.78667515     0.29000
H545        H  0.06324896  0.46263761  0.78632039     0.19600
H546        H  0.01936107  0.39527323  0.73349498     0.19600
C547        C  0.28275984  0.24192961  0.74527510    -0.06200
C548        C  0.27019993  0.22945731  0.76199084    -0.17400
C549        C  0.24713953  0.19866359  0.76364262     0.10900
C550        C  0.23641967  0.17991894  0.74824867    -0.06200
C551        C  0.24679075  0.19330870  0.73137864    -0.17400
C552        C  0.26995190  0.22407123  0.72975134     0.11000
S553        S  0.23325134  0.18432963  0.78576972    -0.32400
S554        S  0.28385483  0.23870025  0.70765617    -0.32400
H555        H  0.29622455  0.26993930  0.71204494     0.29000
H556        H  0.20345803  0.16216604  0.78034065     0.29000
H557        H  0.28002805  0.24306704  0.77396110     0.19600
H558        H  0.23829183  0.17923627  0.71946061     0.19600
C559        C  0.40548609  0.49034237  0.75969980    -0.06200
C560        C  0.41240298  0.48148672  0.74333398    -0.17400
C561        C  0.40563394  0.45145745  0.74011459     0.10900
C562        C  0.39212817  0.42917502  0.75369948    -0.06200
C563        C  0.38505899  0.43772196  0.77016415    -0.17400
C564        C  0.39141259  0.46800751  0.77327466     0.11000
S565        S  0.41448451  0.44313741  0.71815906    -0.32400
S566        S  0.38054005  0.47639479  0.79453958    -0.32400
H567        H  0.36925589  0.99524211  0.78674038     0.29000
H568        H  0.38906367  0.41316036  0.71723841     0.29000
H569        H  0.42315733  0.49822587  0.73273667     0.19600
H570        H  0.37504934  0.42087710  0.78076375     0.19600
C571        C  0.43788719  0.25670880  0.75162052    -0.06200
C572        C  0.44380779  0.24639261  0.76772551    -0.17400
C573        C  0.45309965  0.22447978  0.76783750     0.10900
C574        C  0.45620541  0.21216910  0.75154754    -0.06200
C575        C  0.45322293  0.22447848  0.73542858    -0.17400
C576        C  0.44473541  0.24711043  0.73528486     0.11000
S577        S  0.45770728  0.21086521  0.78925740    -0.32400
S578        S  0.44261967  0.26228770  0.71385817    -0.32400
H579        H  0.45302567  0.29231787  0.72017483     0.29000
H580        H  0.47698389  0.19994305  0.78323360     0.29000
H581        H  0.43952229  0.25408647  0.78035472     0.19600
H582        H  0.45561843  0.21508228  0.72290168     0.19600
C583        C  0.31454925  0.29162662  0.84678903    -0.06200
C584        C  0.32717140  0.32141469  0.83972714    -0.17400
C585        C  0.34584835  0.33044036  0.82453951     0.10900
C586        C  0.35250534  0.30938597  0.81595954    -0.06200
C587        C  0.33981781  0.27946230  0.82287453    -0.17400
C588        C  0.32117369  0.27045212  0.83824092     0.11000
S589        S  0.36051924  0.36932253  0.81672921    -0.32400
S590        S  0.30722526  0.23201187  0.84647838    -0.32400
H591        H  0.31134469  0.24017156  0.86465393     0.29000
H592        H  0.38765913  0.37272008  0.80921613     0.29000
H593        H  0.32281376  0.33808426  0.84631793     0.19600
H594        H  0.34402196  0.26285100  0.81609339     0.19600
C595        C  0.21916867  0.99982972  0.01569060    -0.06200
C596        C  0.23352169  0.48577530  0.00705316    -0.17400
C597        C  0.23360246  0.48353200  0.98846645     0.10900
C598        C  0.21952458  0.99662798  0.97777835    -0.06200
C599        C  0.20459363  0.01027534  0.98653366    -0.17400
C600        C  0.20436003  0.01211839  0.00526776     0.11000
S601        S  0.25030218  0.46198771  0.97928105    -0.32400
S602        S  0.18654782  0.03216853  0.01488432    -0.32400
H603        H  0.21043306  0.04866088  0.02715573     0.29000
H604        H  0.22793270  0.44774655  0.96585272     0.29000
H605        H  0.24422566  0.47551418  0.01484211     0.19600
H606        H  0.19425252  0.02088611  0.97874360     0.19600
C607        C  0.17649003  0.46964172  0.14702413    -0.06200
C608        C  0.16149581  0.43880207  0.15279360    -0.17400
C609        C  0.14108319  0.42868392  0.16727844     0.10900
C610        C  0.13580515  0.44983051  0.17690303    -0.06200
C611        C  0.14985261  0.48038782  0.17086749    -0.17400
C612        C  0.16948035  0.49032914  0.15595266     0.11000
S613        S  0.12174214  0.38819892  0.17246102    -0.32400
S614        S  0.18664479  0.03082056  0.14941224    -0.32400
H615        H  0.17927269  0.02367887  0.13125055     0.29000
H616        H  0.09479905  0.38675079  0.17893771     0.29000
H617        H  0.16538607  0.42214541  0.14582599     0.19600
H618        H  0.14594470  0.49688153  0.17802303     0.19600
C619        C  0.26974761  0.26620254  0.01899393    -0.06200
C620        C  0.26604969  0.28888530  0.01021931    -0.17400
C621        C  0.26761169  0.29176457  0.99161625     0.10900
C622        C  0.27213184  0.27094301  0.98111247    -0.06200
C623        C  0.27676368  0.24882132  0.98988839    -0.17400
C624        C  0.27539555  0.24604034  0.00853586     0.11000
S625        S  0.26516813  0.32351242  0.98234494    -0.32400
S626        S  0.27933646  0.21514948  0.01788177    -0.32400
H627        H  0.25394541  0.20508002  0.02935322     0.29000
H628        H  0.28911721  0.33131388  0.97006156     0.29000
H629        H  0.26255010  0.30512604  0.01795465     0.19600
H630        H  0.28033126  0.23264547  0.98213570     0.19600
C631        C  0.28631651  0.37928725  0.07852528    -0.06200
C632        C  0.29178328  0.39631439  0.09434095    -0.17400
C633        C  0.28394127  0.41938638  0.09568859     0.10900
C634        C  0.27012093  0.42532307  0.08097606    -0.06200
C635        C  0.26745639  0.41033398  0.06470371    -0.17400
C636        C  0.27541951  0.38746516  0.06331998     0.11000
S637        S  0.29151324  0.43996004  0.11652879    -0.32400
S638        S  0.26962188  0.36834269  0.04206186    -0.32400
H639        H  0.29146978  0.35907383  0.04478139     0.29000
H640        H  0.29539416  0.46737482  0.10906762     0.29000
H641        H  0.30027678  0.39026107  0.10605840     0.19600
H642        H  0.25760869  0.41534810  0.05320772     0.19600
C643        C  0.22899784  0.15497921  0.09462736    -0.06200
C644        C  0.21861425  0.13909834  0.07826872    -0.17400
C645        C  0.21105177  0.10827997  0.07640121     0.10900
C646        C  0.21310572  0.09220943  0.09131852    -0.06200
C647        C  0.22094780  0.10732884  0.10799580    -0.17400
C648        C  0.22920014  0.13836170  0.10977687     0.11000
S649        S  0.20178263  0.09191515  0.05431956    -0.32400
S650        S  0.24236679  0.15590791  0.13136882    -0.32400
H651        H  0.26867629  0.18194501  0.12471539     0.29000
H652        H  0.22312910  0.08161689  0.05482124     0.29000
H653        H  0.21785921  0.15129916  0.06652415     0.19600
H654        H  0.22246509  0.09534828  0.11963721     0.19600
C655        C  0.42489345  0.39149449  0.24492680    -0.06200
C656        C  0.43567065  0.38996304  0.22784594    -0.17400
C657        C  0.46626605  0.39720023  0.22516250     0.10900
C658        C  0.48680841  0.40678988  0.23982329    -0.06200
C659        C  0.47552105  0.40763040  0.25688399    -0.17400
C660        C  0.44508931  0.39980697  0.25960405     0.11000
S661        S  0.47733455  0.39319928  0.20290855    -0.32400
S662        S  0.43346548  0.40074706  0.28228000    -0.32400
H663        H  0.40334117  0.37607844  0.28008978     0.29000
H664        H  0.99615686  0.38298887  0.20700570     0.29000
H665        H  0.42038996  0.38380221  0.21646415     0.19600
H666        H  0.49062202  0.41462340  0.26838995     0.19600
C667        C  0.21202400  0.46264918  0.24774228    -0.06200
C668        C  0.22242081  0.45736747  0.26395898    -0.17400
C669        C  0.24489962  0.44859556  0.26427602     0.10900
C670        C  0.25666487  0.44451366  0.24791644    -0.06200
C671        C  0.24855680  0.45321157  0.23193266    -0.17400
C672        C  0.22648312  0.46228006  0.23170510     0.11000
S673        S  0.25763001  0.44208285  0.28557949    -0.32400
S674        S  0.21526263  0.47004882  0.21031098    -0.32400
H675        H  0.20350610  0.48827418  0.21698114     0.29000
H676        H  0.24170837  0.45241231  0.29636904     0.29000
H677        H  0.21112848  0.45764262  0.27622009     0.19600
H678        H  0.25796948  0.45106675  0.21935044     0.19600
C679        C  0.30069869  0.35659989  0.18284926    -0.06200
C680        C  0.27353445  0.32781246  0.18182090    -0.17400
C681        C  0.26576132  0.30913360  0.16646003     0.10900
C682        C  0.28630640  0.31856148  0.15179395    -0.06200
C683        C  0.31337723  0.34768583  0.15298805    -0.17400
C684        C  0.32046327  0.36667372  0.16803204     0.11000
S685        S  0.22945925  0.27384285  0.16654747    -0.32400
S686        S  0.35644317  0.40238981  0.16815018    -0.32400
H687        H  0.34436054  0.41956000  0.17588598     0.29000
H688        H  0.22005718  0.28004920  0.15013201     0.29000
H689        H  0.25827136  0.31958491  0.19328312     0.19600
H690        H  0.32972228  0.35603373  0.14206385     0.19600
C691        C  0.10200578  0.09676185  0.23915731    -0.06200
C692        C  0.09812224  0.08116091  0.22297481    -0.17400
C693        C  0.10487387  0.05734005  0.22152461     0.10900
C694        C  0.11500420  0.04804448  0.23674557    -0.06200
C695        C  0.12131577  0.06537495  0.25247897    -0.17400
C696        C  0.11543975  0.08979626  0.25376179     0.11000
S697        S  0.09985118  0.03970204  0.19985813    -0.32400
S698        S  0.12562559  0.11108040  0.27445475    -0.32400
H699        H  0.13406192  0.13957836  0.26646432     0.29000
H700        H  0.12405401  0.03351915  0.20186772     0.29000
H701        H  0.08874228  0.08679948  0.21150744     0.19600
H702        H  0.12974130  0.05912407  0.26413952     0.19600
C703        C  0.05986899  0.32320285  0.25021882    -0.06200
C704        C  0.05027905  0.30400458  0.23517390    -0.17400
C705        C  0.04046953  0.27265826  0.23668820     0.10900
C706        C  0.04119516  0.26035054  0.25351503    -0.06200
C707        C  0.04968328  0.27932349  0.26864360    -0.17400
C708        C  0.05849757  0.31040057  0.26722902     0.11000
S709        S  0.03081296  0.25036198  0.21642150    -0.32400
S710        S  0.07160632  0.33342676  0.28720906    -0.32400
H711        H  0.04799710  0.34068377  0.28673421     0.29000
H712        H  0.00554056  0.22428491  0.22382411     0.29000
H713        H  0.05103383  0.31362386  0.22210345     0.19600
H714        H  0.05125061  0.27028357  0.28150164     0.19600
C715        C  0.41051227  0.00759346  0.23998167    -0.06200
C716        C  0.40506628  0.03206324  0.23714829    -0.17400
C717        C  0.42841268  0.06273685  0.23988907     0.10900
C718        C  0.45805174  0.06914668  0.24539213    -0.06200
C719        C  0.46334305  0.04428234  0.24738540    -0.17400
C720        C  0.44026189  0.01399742  0.24463861     0.11000
S721        S  0.41824550  0.09210828  0.23711745    -0.32400
S722        S  0.44820581  0.48445065  0.24921128    -0.32400
H723        H  0.42771371  0.46479684  0.23610558     0.29000
H724        H  0.43175965  0.10688156  0.25333364     0.29000
H725        H  0.38209142  0.02718490  0.23382708     0.19600
H726        H  0.48589962  0.04826695  0.25100583     0.19600
C727        C  0.23925057  0.28723305  0.25032881    -0.06200
C728        C  0.22628957  0.27841333  0.23327210    -0.17400
C729        C  0.19498789  0.25749415  0.23106717     0.10900
C730        C  0.17648479  0.24397272  0.24631235    -0.06200
C731        C  0.19041651  0.25075137  0.26328679    -0.17400
C732        C  0.22145706  0.27234644  0.26544416     0.11000
S733        S  0.17964706  0.25239498  0.20878600    -0.32400
S734        S  0.23664487  0.28179467  0.28783523    -0.32400
H735        H  0.26758760  0.29379244  0.28301200     0.29000
H736        H  0.15504487  0.25662714  0.21377768     0.29000
H737        H  0.23990906  0.29052920  0.22163856     0.19600
H738        H  0.17671398  0.24005646  0.27511948     0.19600
C739        C  0.00110725  0.22732540  0.01880055    -0.06200
C740        C  0.48365275  0.23785430  0.00844541    -0.17400
C741        C  0.48524605  0.23982351  0.98977991     0.10900
C742        C  0.00447671  0.23123057  0.98100206    -0.06200
C743        C  0.02135468  0.22067679  0.99057700    -0.17400
C744        C  0.01966608  0.21837346  0.00925461     0.11000
S745        S  0.46071806  0.25137098  0.97879016    -0.32400
S746        S  0.04086794  0.20274694  0.01997292    -0.32400
H747        H  0.01897926  0.18708568  0.03341287     0.29000
H748        H  0.45270336  0.23036120  0.96457730     0.29000
H749        H  0.46906419  0.24454988  0.01545727     0.19600
H750        H  0.03604468  0.21423164  0.98346259     0.19600
C751        C  0.08853066  0.20652170  0.08901711    -0.06200
C752        C  0.10343449  0.21478575  0.10563280    -0.17400
C753        C  0.13504621  0.22568081  0.10705762     0.10900
C754        C  0.15207460  0.22767787  0.09155543    -0.06200
C755        C  0.13647028  0.21717306  0.07522209    -0.17400
C756        C  0.10505254  0.20658520  0.07384044     0.11000
S757        S  0.15261704  0.23985646  0.12856584    -0.32400
S758        S  0.08756811  0.19506886  0.05212558    -0.32400
H759        H  0.05736570  0.17648237  0.05834513     0.29000
H760        H  0.17776386  0.26685262  0.12180212     0.29000
H761        H  0.09105158  0.21564100  0.11726271     0.19600
H762        H  0.14899965  0.21788226  0.06329179     0.19600
C763        C  0.42377365  0.26864404  0.09358162    -0.06200
C764        C  0.41647211  0.27683271  0.07707960    -0.17400
C765        C  0.39365531  0.28479193  0.07557780     0.10900
C766        C  0.37743482  0.28486351  0.09087205    -0.06200
C767        C  0.38604921  0.27901916  0.10761258    -0.17400
C768        C  0.40878566  0.27062818  0.10913456     0.11000
S769        S  0.38517991  0.29320718  0.05357685    -0.32400
S770        S  0.41528001  0.25994271  0.13095152    -0.32400
H771        H  0.41355685  0.23250894  0.12506758     0.29000
H772        H  0.37390948  0.31236437  0.05931927     0.29000
H773        H  0.42810941  0.27625133  0.06503133     0.19600
H774        H  0.37331016  0.27856642  0.11939260     0.19600
C775        C  0.11652008  0.40603927  0.07949349    -0.06200
C776        C  0.10243745  0.39645759  0.09623827    -0.17400
C777        C  0.08123327  0.36546693  0.09961581     0.10900
C778        C  0.07309452  0.34354880  0.08570665    -0.06200
C779        C  0.08535033  0.35403151  0.06853411    -0.17400
C780        C  0.10705490  0.38478087  0.06536672     0.11000
S781        S  0.06842678  0.35538077  0.12234567    -0.32400
S782        S  0.12398100  0.39503453  0.04341776    -0.32400
H783        H  0.13385192  0.42656465  0.04478898     0.29000
H784        H  0.07662650  0.33243101  0.12331145     0.29000
H785        H  0.11042968  0.41262931  0.10727061     0.19600
H786        H  0.07896241  0.33795791  0.05752782     0.19600
C787        C  0.40153568  0.12231241  0.08686536    -0.06200
C788        C  0.38788939  0.11174880  0.10365486    -0.17400
C789        C  0.35709274  0.08835821  0.10520724     0.10900
C790        C  0.33926489  0.07548983  0.08958025    -0.06200
C791        C  0.35371423  0.08556216  0.07283476    -0.17400
C792        C  0.38439447  0.10846164  0.07133861     0.11000
S793        S  0.34223961  0.07626724  0.12741294    -0.32400
S794        S  0.40021590  0.11949831  0.04916035    -0.32400
H795        H  0.43065026  0.12876651  0.05399948     0.29000
H796        H  0.32753096  0.04471125  0.12327460     0.29000
H797        H  0.40100527  0.12252794  0.11564299     0.19600
H798        H  0.34090355  0.07602115  0.06060137     0.19600
C799        C  0.01747955  0.21184226  0.15423325    -0.06200
C800        C  0.04834957  0.22033352  0.15702083    -0.17400
C801        C  0.05763833  0.21036336  0.17208228     0.10900
C802        C  0.03568249  0.19166503  0.18502984    -0.06200
C803        C  0.00472114  0.18340684  0.18211632    -0.17400
C804        C  0.99547872  0.19309585  0.16698135     0.11000
S805        S  0.09778237  0.22260892  0.17397157    -0.32400
S806        S  0.46015653  0.15134545  0.15341624    -0.32400
H807        H  0.45307988  0.17303047  0.14640214     0.29000
H808        H  0.09243615  0.19230367  0.17430101     0.29000
H809        H  0.06524390  0.23380346  0.14694227     0.19600
H810        H  0.98731141  0.16914585  0.19175070     0.19600
C811        C  0.39364473  0.32850476  0.64504367    -0.06200
C812        C  0.42214268  0.34265848  0.65390605    -0.17400
C813        C  0.42406863  0.34413917  0.67253465     0.10900
C814        C  0.39694303  0.33170914  0.68275367    -0.06200
C815        C  0.36841547  0.31778052  0.67402532    -0.17400
C816        C  0.36642678  0.31591064  0.65534835     0.11000
S817        S  0.46175649  0.36090609  0.68245371    -0.32400
S818        S  0.32854706  0.29587002  0.64566603    -0.32400
H819        H  0.33597327  0.28027085  0.63275840     0.29000
H820        H  0.45299859  0.33995147  0.69670422     0.29000
H821        H  0.44323111  0.35246459  0.64625126     0.19600
H822        H  0.34749043  0.30781730  0.68184778     0.19600
C823        C  0.32421709  0.39135719  0.35407785    -0.06200
C824        C  0.34281070  0.38305711  0.34437315    -0.17400
C825        C  0.34308412  0.38347142  0.32568622     0.10900
C826        C  0.32457593  0.39267578  0.31639701    -0.06200
C827        C  0.30485663  0.39948968  0.32608182    -0.17400
C828        C  0.30435261  0.39880919  0.34474853     0.11000
S829        S  0.36720295  0.37161893  0.31454947    -0.32400
S830        S  0.27770060  0.40746083  0.35581194    -0.32400
H831        H  0.27197629  0.38753539  0.37032133     0.29000
H832        H  0.34776729  0.35823424  0.29973684     0.29000
H833        H  0.35790589  0.37702805  0.35139993     0.19600
H834        H  0.29010461  0.40596804  0.31904907     0.19600
C835        C  0.38493065  0.36691649  0.51439891    -0.06200
C836        C  0.40350725  0.39782611  0.50913421    -0.17400
C837        C  0.39459808  0.41086364  0.49549376     0.10900
C838        C  0.36644590  0.39275710  0.48646528    -0.06200
C839        C  0.34745356  0.36223817  0.49196954    -0.17400
C840        C  0.35640019  0.34915711  0.50557110     0.11000
S841        S  0.41973004  0.45108339  0.49069311    -0.32400
S842        S  0.32970524  0.31000486  0.51127596    -0.32400
H843        H  0.35059309  0.29992421  0.50738216     0.29000
H844        H  0.39615890  0.45682600  0.48556445     0.29000
H845        H  0.42507795  0.41229196  0.51593254     0.19600
H846        H  0.32595024  0.34791638  0.48506180     0.19600
C847        C  0.17447803  0.06011269  0.64778549    -0.06200
C848        C  0.15606864  0.03123971  0.65577258    -0.17400
C849        C  0.15255355  0.02815645  0.67434653     0.10900
C850        C  0.16676425  0.05463144  0.68526344    -0.06200
C851        C  0.18526836  0.08344707  0.67723724    -0.17400
C852        C  0.18962250  0.08639905  0.65875296     0.11000
S853        S  0.12768332  0.99036423  0.68319820    -0.32400
S854        S  0.21238485  0.12456155  0.64983083    -0.32400
H855        H  0.23346197  0.11790627  0.64153373     0.29000
H856        H  0.15143498  0.98984442  0.69281535     0.29000
H857        H  0.14406906  0.01093922  0.64744405     0.19600
H858        H  0.19646733  0.10395406  0.68546085     0.19600
C859        C  0.08065984  0.45127345  0.58327417    -0.06200
C860        C  0.06799851  0.44028969  0.56634701    -0.17400
C861        C  0.03725571  0.41738784  0.56442169     0.10900
C862        C  0.01873408  0.40513858  0.57977909    -0.06200
C863        C  0.03220932  0.41437602  0.59675060    -0.17400
C864        C  0.06290236  0.43743057  0.59864677     0.11000
S865        S  0.02288319  0.40554254  0.54204468    -0.32400
S866        S  0.07766126  0.44949918  0.62095617    -0.32400
H867        H  0.10875343  0.46145989  0.61651977     0.29000
H868        H  0.50069484  0.37340658  0.54752059     0.29000
H869        H  0.08154912  0.45103594  0.55450724     0.19600
H870        H  0.01830771  0.40486983  0.60862111     0.19600
C871        C  0.29317752  0.23925084  0.57160983    -0.06200
C872        C  0.27947381  0.22557905  0.58790536    -0.17400
C873        C  0.25580892  0.19484149  0.58872213     0.10900
C874        C  0.24609522  0.17669570  0.57294619    -0.06200
C875        C  0.25804822  0.19109863  0.55652793    -0.17400
C876        C  0.28099951  0.22208961  0.55569742     0.11000
S877        S  0.23890224  0.18039562  0.61032342    -0.32400
S878        S  0.29351637  0.23858844  0.53390847    -0.32400
H879        H  0.29816748  0.26745460  0.53925732     0.29000
H880        H  0.20893587  0.16159290  0.60373718     0.29000
H881        H  0.28799670  0.23855109  0.60020804     0.19600
H882        H  0.25011103  0.17794418  0.54425159     0.19600
C883        C  0.11211991  0.44488543  0.34965897    -0.06200
C884        C  0.08322064  0.43161467  0.34135670    -0.17400
C885        C  0.08019326  0.43393427  0.32294723     0.10900
C886        C  0.10672982  0.44916400  0.31209232    -0.06200
C887        C  0.13571122  0.46279570  0.32038338    -0.17400
C888        C  0.13869955  0.46060029  0.33889786     0.11000
S889        S  0.04163981  0.41806504  0.31442702    -0.32400
S890        S  0.17701205  0.47659879  0.34769653    -0.32400
H891        H  0.16928899  0.45209349  0.35954326     0.29000
H892        H  0.04913185  0.44212298  0.30224855     0.29000
H893        H  0.06256906  0.42009516  0.34938107     0.19600
H894        H  0.15629521  0.47412718  0.31229790     0.19600
C895        C  0.42919961  0.38518191  0.41452117    -0.06200
C896        C  0.44327409  0.38557990  0.43075593    -0.17400
C897        C  0.47378091  0.39249408  0.43138330     0.10900
C898        C  0.49081548  0.39940949  0.41540746    -0.06200
C899        C  0.47599153  0.39645358  0.39900395    -0.17400
C900        C  0.44535640  0.38957171  0.39840310     0.11000
S901        S  0.48997691  0.39342820  0.45303138    -0.32400
S902        S  0.42942960  0.39036014  0.37696893    -0.32400
H903        H  0.39873717  0.36974031  0.38150260     0.29000
H904        H  0.00977147  0.38358377  0.44806156     0.29000
H905        H  0.43099731  0.38250664  0.44317891     0.19600
H906        H  0.98887854  0.39987673  0.38739852     0.19600
C907        C  0.21348818  0.45468096  0.42415172    -0.06200
C908        C  0.22539426  0.45380624  0.44100034    -0.17400
C909        C  0.25097880  0.44990580  0.44268291     0.10900
C910        C  0.26454782  0.44581088  0.42717503    -0.06200
C911        C  0.25354436  0.44848537  0.41034529    -0.17400
C912        C  0.22813849  0.45242392  0.40867292     0.11000
S913        S  0.26531426  0.45094689  0.46486812    -0.32400
S914        S  0.21387835  0.45119880  0.38642234    -0.32400
H915        H  0.18291249  0.43103872  0.39076747     0.29000
H916        H  0.29641166  0.46703530  0.45978918     0.29000
H917        H  0.21450389  0.45594992  0.45296632     0.19600
H918        H  0.26349957  0.44548041  0.39822426     0.19600
C919        C  0.12321057  0.48385161  0.48334754    -0.06200
C920        C  0.15207356  0.49114854  0.49022824    -0.17400
C921        C  0.16560839  0.01079136  0.50446148     0.10900
C922        C  0.14982194  0.02418947  0.51276645    -0.06200
C923        C  0.12177603  0.01847806  0.50541907    -0.17400
C924        C  0.10690336  0.49660057  0.49186431     0.11000
S925        S  0.20254332  0.01767105  0.51213094    -0.32400
S926        S  0.06858736  0.48695346  0.48539933    -0.32400
H927        H  0.05907051  0.45620997  0.48100370     0.29000
H928        H  0.21215106  0.04702583  0.51927862     0.29000
H929        H  0.16531903  0.48231898  0.48371104     0.19600
H930        H  0.10891094  0.02769092  0.51198713     0.19600
C931        C  0.06803983  0.17443818  0.35518552    -0.06200
C932        C  0.09317217  0.19643094  0.34538949    -0.17400
C933        C  0.09362804  0.19520514  0.32678287     0.10900
C934        C  0.06799201  0.17178667  0.31754802    -0.06200
C935        C  0.04293550  0.14953778  0.32735698    -0.17400
C936        C  0.04280955  0.15041406  0.34604746     0.11000
S937        S  0.12829579  0.22337389  0.31576779    -0.32400
S938        S  0.01049852  0.11950657  0.35740255    -0.32400
H939        H  0.02782639  0.11693424  0.37134477     0.29000
H940        H  0.12803053  0.20290353  0.30283053     0.29000
H941        H  0.11288840  0.21451716  0.35232906     0.19600
H942        H  0.02333739  0.13131635  0.32041976     0.19600
C943        C  0.11665133  0.09926837  0.41558019    -0.06200
C944        C  0.12400913  0.08854313  0.43096922    -0.17400
C945        C  0.13237114  0.06603680  0.42990242     0.10900
C946        C  0.13277001  0.05344559  0.41313652    -0.06200
C947        C  0.12823468  0.06607487  0.39757803    -0.17400
C948        C  0.12008300  0.08889445  0.39860169     0.11000
S949        S  0.13913860  0.05193357  0.45056591    -0.32400
S950        S  0.11098211  0.10105373  0.37795684    -0.32400
H951        H  0.08442325  0.10037919  0.38445565     0.29000
H952        H  0.15409456  0.53896544  0.44450752     0.29000
H953        H  0.12211899  0.09694200  0.44398385     0.19600
H954        H  0.12794423  0.05597659  0.38472018     0.19600
C955        C  0.07375620  0.32775618  0.42615410    -0.06200
C956        C  0.07114218  0.31204552  0.41007310    -0.17400
C957        C  0.06658285  0.28224351  0.40993102     0.10900
C958        C  0.06365166  0.26697244  0.42623900    -0.06200
C959        C  0.06526565  0.28210014  0.44232905    -0.17400
C960        C  0.06974963  0.31197629  0.44248537     0.11000
S961        S  0.06751589  0.26620667  0.38852102    -0.32400
S962        S  0.06927541  0.32805392  0.46391816    -0.32400
H963        H  0.05180480  0.34111327  0.45794352     0.29000
H964        H  0.08628753  0.25446438  0.39422361     0.29000
H965        H  0.07428046  0.32360071  0.39738658     0.19600
H966        H  0.06289282  0.27046312  0.45491107     0.19600
C967        C  0.24665909  0.30168408  0.42926277    -0.06200
C968        C  0.22958612  0.29531000  0.44513729    -0.17400
C969        C  0.19972037  0.27028313  0.44648220     0.10900
C970        C  0.18606772  0.25094450  0.43149646    -0.06200
C971        C  0.20412004  0.25630564  0.41603655    -0.17400
C972        C  0.23368950  0.28156902  0.41460886     0.11000
S973        S  0.18041499  0.26532218  0.46749882    -0.32400
S974        S  0.25203916  0.28833697  0.39308609    -0.32400
H975        H  0.25950380  0.31932075  0.39226311     0.29000
H976        H  0.17206101  0.23415774  0.46895999     0.29000
H977        H  0.23940076  0.31037390  0.45657588     0.19600
H978        H  0.19458579  0.24176739  0.40438148     0.19600
C979        C  0.46181288  0.08406563  0.41659002    -0.06200
C980        C  0.45204599  0.06818616  0.40036978    -0.17400
C981        C  0.42979598  0.03702118  0.40005631     0.10900
C982        C  0.41666610  0.02184553  0.41631781    -0.06200
C983        C  0.42474722  0.03853577  0.43231885    -0.17400
C984        C  0.44712255  0.06949905  0.43261396     0.11000
S985        S  0.42211078  0.01732847  0.37889169    -0.32400
S986        S  0.45826105  0.08836042  0.45406498    -0.32400
H987        H  0.47092050  0.11851951  0.44752818     0.29000
H988        H  0.42357903  0.49025937  0.38651637     0.29000
H989        H  0.46405578  0.07920255  0.38815018     0.19600
H990        H  0.41435711  0.02707821  0.44478373     0.19600
C991        C  0.44259956  0.10797916  0.64975491    -0.06200
C992        C  0.46861563  0.11108902  0.65873251    -0.17400
C993        C  0.47019005  0.11125862  0.67745007     0.10900
C994        C  0.44533597  0.10856820  0.68761250    -0.06200
C995        C  0.41962246  0.10605480  0.67869689    -0.17400
C996        C  0.41787748  0.10558505  0.66001971     0.11000
S997        S  0.50383972  0.11349027  0.68747982    -0.32400
S998        S  0.38269364  0.10003781  0.65026844    -0.32400
H999        H  0.38016534  0.07788954  0.63781315     0.29000
H1000       H  0.48846114  0.09409308  0.70199277     0.29000
H1001       H  0.48772441  0.11284975  0.65109606     0.19600
H1002       H  0.40036315  0.10381013  0.68639758     0.19600
C1003       C  0.44822426  0.20642941  0.57336365    -0.06200
C1004       C  0.42357184  0.20179606  0.56239878    -0.17400
C1005       C  0.41690901  0.22534830  0.55927362     0.10900
C1006       C  0.43477888  0.25417841  0.56767899    -0.06200
C1007       C  0.46050006  0.25918173  0.57783827    -0.17400
C1008       C  0.46725287  0.23568247  0.58086244     0.11000
S1009       S  0.38372135  0.21624863  0.54586928    -0.32400
S1010       S  0.49889620  0.24384044  0.59551816    -0.32400
H1011       H  0.48532342  0.21464278  0.60352585     0.29000
H1012       H  0.40031521  0.24082262  0.53401592     0.29000
H1013       H  0.40889160  0.17932451  0.55654676     0.19600
H1014       H  0.47455104  0.28118760  0.58434089     0.19600
C1015       C  0.40254779  0.48714121  0.58073192    -0.06200
C1016       C  0.40126751  0.47398874  0.59755826    -0.17400
C1017       C  0.39230658  0.44292020  0.59930765     0.10900
C1018       C  0.38344875  0.42406189  0.58404604    -0.06200
C1019       C  0.38218377  0.43632512  0.56748007    -0.17400
C1020       C  0.39226694  0.46765833  0.56553066     0.11000
S1021       S  0.39559486  0.42936063  0.62104356    -0.32400
S1022       S  0.39495809  0.48145704  0.54301886    -0.32400
H1023       H  0.42688699  0.00548110  0.54418472     0.29000
H1024       H  0.37483358  0.39807278  0.61777270     0.29000
H1025       H  0.40857589  0.48824081  0.60942793     0.19600
H1026       H  0.37653013  0.42208657  0.55562339     0.19600
C1027       C  0.32831128  0.06173589  0.57422096    -0.06200
C1028       C  0.31296574  0.05407570  0.59079020    -0.17400
C1029       C  0.28233671  0.04661850  0.59233135     0.10900
C1030       C  0.26606838  0.04646415  0.57700812    -0.06200
C1031       C  0.28023681  0.05144772  0.56022748    -0.17400
C1032       C  0.31121405  0.05941709  0.55866488     0.11000
S1033       S  0.26556935  0.03870878  0.61435832    -0.32400
S1034       S  0.32805512  0.06916823  0.53674641    -0.32400
H1035       H  0.35304015  0.09750755  0.54220330     0.29000
H1036       H  0.23504273  0.01990125  0.60867865     0.29000
H1037       H  0.32521247  0.05481306  0.60286088     0.19600
H1038       H  0.26787594  0.05161865  0.54840786     0.19600
C1039       C  0.05274248  0.12132742  0.58400226    -0.06200
C1040       C  0.06768171  0.11956074  0.59934518    -0.17400
C1041       C  0.09116488  0.11238376  0.59817267     0.10900
C1042       C  0.09904777  0.10541848  0.58131430    -0.06200
C1043       C  0.08575605  0.10967189  0.56588585    -0.17400
C1044       C  0.06250889  0.11717238  0.56706913     0.11000
S1045       S  0.11004630  0.11250753  0.61867915    -0.32400
S1046       S  0.04417497  0.11817203  0.54658776    -0.32400
H1047       H  0.51390632  0.10010557  0.55343986     0.29000
H1048       H  0.13905184  0.12321784  0.61081114     0.29000
H1049       H  0.06034309  0.12284228  0.61235387     0.19600
H1050       H  0.09180886  0.10487502  0.55287911     0.19600
C1051       C  0.48644747  0.12309503  0.51597316    -0.06200
C1052       C  0.50369150  0.15421650  0.51100374    -0.17400
C1053       C  0.02549143  0.16361098  0.49783135     0.10900
C1054       C  0.02812446  0.14176859  0.48708443    -0.06200
C1055       C  0.00938301  0.11032435  0.49148484    -0.17400
C1056       C  0.49009947  0.10135722  0.50588003     0.11000
S1057       S  0.04867445  0.20460494  0.49488883    -0.32400
S1058       S  0.47092918  0.06120144  0.51161288    -0.32400
H1059       H  0.44152206  0.05798813  0.51129140     0.29000
H1060       H  0.07647673  0.20434684  0.49602859     0.29000
H1061       H  0.50173213  0.17136379  0.51878485     0.19600
H1062       H  0.01077064  0.09296833  0.48360638     0.19600
Zn1063     Zn  0.45761882  0.58265361  0.59676320     1.49700
Zn1064     Zn  0.48078597  0.64032155  0.57203250     1.49400
Zn1065     Zn  0.41979177  0.57665286  0.56096855     1.49100
Zn1066     Zn  0.42053163  0.61585353  0.59433804     1.49500
O1067       O  0.44466412  0.60361952  0.58066412    -1.84300
O1068       O  0.50115715  0.59575989  0.59168477    -0.74900
O1069       O  0.48428341  0.63481586  0.54625477    -0.74700
O1070       O  0.41040311  0.53329085  0.56642994    -0.74200
O1071       O  0.02048533  0.64356620  0.58123574    -0.74900
O1072       O  0.43267641  0.53736426  0.59266174    -0.74500
O1073       O  0.44417763  0.59132798  0.53685267    -0.75100
O1074       O  0.37627915  0.58741869  0.58920119    -0.74500
O1075       O  0.47584309  0.67834699  0.57373761    -0.75200
O1076       O  0.37652954  0.57204468  0.56134717    -0.74600
O1077       O  0.42896698  0.65681646  0.58554528    -0.75100
O1078       O  0.42858350  0.61700229  0.62109369    -0.75000
O1079       O  0.45433795  0.59192070  0.62256582    -0.74800
C1080       C  0.02355129  0.62104193  0.58650006     0.77000
C1081       C  0.47021185  0.61548183  0.53389898     0.77500
C1082       C  0.41585866  0.52103149  0.57978265     0.76500
C1083       C  0.36211298  0.57425343  0.57486632     0.76800
C1084       C  0.45172985  0.67931696  0.57796587     0.78000
C1085       C  0.44199688  0.60569010  0.63019812     0.77000
Zn1086     Zn  0.05406148  0.63039417  0.43366069     1.49700
Zn1087     Zn  0.08690333  0.69951846  0.44260230     1.49400
Zn1088     Zn  0.10340474  0.67693987  0.40731862     1.49100
Zn1089     Zn  0.03953614  0.67380496  0.41028936     1.49500
O1090       O  0.07097799  0.67036969  0.42334948    -1.84300
O1091       O  0.04272357  0.62971130  0.45955397    -0.74900
O1092       O  0.13366377  0.72069569  0.44298869    -0.74700
O1093       O  0.11266713  0.64278622  0.40837909    -0.74200
O1094       O  0.06412602  0.67925219  0.46574407    -0.74900
O1095       O  0.08093246  0.61191335  0.42931047    -0.74500
O1096       O  0.14177540  0.71421290  0.41458825    -0.75100
O1097       O  0.04506460  0.67117133  0.38379269    -0.74500
O1098       O  0.07823950  0.73332783  0.43715907    -0.75200
O1099       O  0.09257325  0.67912268  0.38193122    -0.74600
O1100       O  0.04346073  0.71540474  0.41535384    -0.75100
O1101       O  0.49953756  0.63770234  0.41522237    -0.75000
O1102       O  0.51536303  0.60438059  0.42152225    -0.74800
C1103       C  0.04660137  0.65119138  0.47015917     0.77000
C1104       C  0.15173631  0.72728302  0.42963956     0.77500
C1105       C  0.10241824  0.61891681  0.41803534     0.76500
C1106       C  0.06777946  0.67442323  0.37461403     0.76800
C1107       C  0.06110431  0.73684521  0.42605982     0.78000
C1108       C  0.49434639  0.61037824  0.41758307     0.77000
Zn1109     Zn  0.08011806  0.91036548  0.40219942     1.49700
Zn1110     Zn  0.08651813  0.96149864  0.42845194     1.49400
Zn1111     Zn  0.12050478  0.92666308  0.43753588     1.49100
Zn1112     Zn  0.14306740  0.97379226  0.40428734     1.49500
O1113       O  0.10797690  0.94298506  0.41789383    -1.84300
O1114       O  0.03692251  0.90226508  0.40462246    -0.74900
O1115       O  0.09940893  0.97419377  0.45395278    -0.74700
O1116       O  0.09611094  0.87971015  0.43716122    -0.74200
O1117       O  0.04072147  0.93455534  0.42611221    -0.74900
O1118       O  0.07811593  0.87104967  0.40933630    -0.74500
O1119       O  0.12232576  0.94795189  0.46131141    -0.75100
O1120       O  0.18107833  0.97155522  0.41110802    -0.74500
O1121       O  0.09865846  0.50028477  0.41780008    -0.75200
O1122       O  0.16354563  0.93727182  0.43319409    -0.74600
O1123       O  0.14691522  0.51526112  0.40985732    -0.75100
O1124       O  0.13553997  0.96597887  0.37752471    -0.75000
O1125       O  0.09232110  0.92089467  0.37641811    -0.74800
C1126       C  0.02466649  0.91260988  0.41534641     0.77000
C1127       C  0.11418519  0.96762398  0.46518497     0.77500
C1128       C  0.08292165  0.86138587  0.42405069     0.76500
C1129       C  0.18485365  0.95500537  0.42264061     0.76800
C1130       C  0.12557024  0.52110614  0.41347530     0.78000
C1131       C  0.11428891  0.94394932  0.36860373     0.77000
Zn1132     Zn  0.20808242  0.58382247  0.59313136     1.49700
Zn1133     Zn  0.13716714  0.54713793  0.59518361     1.49400
Zn1134     Zn  0.16802430  0.58569805  0.56007992     1.49100
Zn1135     Zn  0.17105304  0.52436553  0.56923985     1.49500
O1136       O  0.17133954  0.56045509  0.57907523    -1.84300
O1137       O  0.19993021  0.57788112  0.61982652    -0.74900
O1138       O  0.11774604  0.57332504  0.59266291    -0.74700
O1139       O  0.20646686  0.62881170  0.56049455    -0.74200
O1140       O  0.14926101  0.54868154  0.62066124    -0.74900
O1141       O  0.22647122  0.62839288  0.58698606    -0.74500
O1142       O  0.13448570  0.59558015  0.56627838    -0.75100
O1143       O  0.16323992  0.52224506  0.54318419    -0.74500
O1144       O  0.10638508  0.50371601  0.59013933    -0.75200
O1145       O  0.15813505  0.56232705  0.53568887    -0.74600
O1146       O  0.13381852  0.98482292  0.57705911    -0.75100
O1147       O  0.21250347  0.52669037  0.57205125    -0.75000
O1148       O  0.23874818  0.57070262  0.58705874    -0.74800
C1149       C  0.17505015  0.56255614  0.62853688     0.77000
C1150       C  0.11829380  0.59090660  0.58028108     0.77500
C1151       C  0.22493499  0.64288895  0.57343832     0.76500
C1152       C  0.15753296  0.53720415  0.53164597     0.76800
C1153       C  0.10874170  0.98129114  0.58347082     0.78000
C1154       C  0.23740716  0.54774880  0.57895811     0.77000
Zn1155     Zn  0.33653865  0.87029227  0.40977159     1.49700
Zn1156     Zn  0.38108920  0.92831660  0.43270195     1.49400
Zn1157     Zn  0.33750570  0.93367588  0.40607437     1.49100
Zn1158     Zn  0.31215185  0.89580404  0.44180439     1.49500
O1159       O  0.34121787  0.90636905  0.42240025    -1.84300
O1160       O  0.37508517  0.86681410  0.41297469    -0.74900
O1161       O  0.40000305  0.97355478  0.42956796    -0.74700
O1162       O  0.33020141  0.91790749  0.38126280    -0.74200
O1163       O  0.40782545  0.91499008  0.42145046    -0.74900
O1164       O  0.33144701  0.87440933  0.38310247    -0.74500
O1165       O  0.37391371  0.97574858  0.40623822    -0.75100
O1166       O  0.29117375  0.92188865  0.44111253    -0.74500
O1167       O  0.38066909  0.91702486  0.45819985    -0.75200
O1168       O  0.30315014  0.93922784  0.41332547    -0.74600
O1169       O  0.33136061  0.89363831  0.46554734    -0.75100
O1170       O  0.27855903  0.85318479  0.43731037    -0.75000
O1171       O  0.29715015  0.83270315  0.41813370    -0.74800
C1172       C  0.40229049  0.88862128  0.41627254     0.77000
C1173       C  0.39577822  0.98863907  0.41736024     0.77500
C1174       C  0.32865891  0.89433100  0.37400354     0.76500
C1175       C  0.28785004  0.93537490  0.42752011     0.76800
C1176       C  0.35927661  0.90222899  0.46936702     0.78000
C1177       C  0.27559602  0.83052065  0.42815372     0.77000
Zn1178     Zn  0.42821763  0.82788866  0.59146026     1.49700
Zn1179     Zn  0.36629346  0.83069172  0.58916987     1.49400
Zn1180     Zn  0.42446160  0.87386359  0.56631839     1.49100
Zn1181     Zn  0.38713614  0.80485390  0.55606769     1.49500
O1182       O  0.40095016  0.83341519  0.57593536    -1.84300
O1183       O  0.41548943  0.82532935  0.61705834    -0.74900
O1184       O  0.36401254  0.86978565  0.58442492    -0.74700
O1185       O  0.47001383  0.89123106  0.56792752    -0.74200
O1186       O  0.37402324  0.83027415  0.61585724    -0.74900
O1187       O  0.47183667  0.86249010  0.58979489    -0.74500
O1188       O  0.41392033  0.90135877  0.57930912    -0.75100
O1189       O  0.38529673  0.82667496  0.53303713    -0.74500
O1190       O  0.32707661  0.79002976  0.58280573    -0.75200
O1191       O  0.41143435  0.87544979  0.54147506    -0.74600
O1192       O  0.34362331  0.77198219  0.56090170    -0.75100
O1193       O  0.41209698  0.78244217  0.55566055    -0.75000
O1194       O  0.42983958  0.79093654  0.58362411    -0.74800
C1195       C  0.39420043  0.82766932  0.62479228     0.77000
C1196       C  0.38719912  0.89680142  0.58258345     0.77500
C1197       C  0.48517790  0.88496390  0.57906477     0.76500
C1198       C  0.39496270  0.85514843  0.53002489     0.76800
C1199       C  0.32252452  0.76898421  0.57151525     0.78000
C1200       C  0.42519489  0.77701399  0.56871993     0.77000
Zn1201     Zn  0.03574487  0.74676366  0.07272977     1.49700
Zn1202     Zn  0.46473647  0.71600594  0.07315345     1.49400
Zn1203     Zn  0.99799188  0.68936012  0.09739350     1.49100
Zn1204     Zn  0.00186133  0.75441362  0.10690598     1.49500
O1205       O  0.00025949  0.72660143  0.08780248    -1.84300
O1206       O  0.02643327  0.73764099  0.04657670    -0.74900
O1207       O  0.43231474  0.67307990  0.07845570    -0.74700
O1208       O  0.03627785  0.68680595  0.09103613    -0.74200
O1209       O  0.47492085  0.71921273  0.04659623    -0.74900
O1210       O  0.06532285  0.73362671  0.07954099    -0.74500
O1211       O  0.45412283  0.65162558  0.09436208    -0.75100
O1212       O  0.00938373  0.73917043  0.13132862    -0.74500
O1213       O  0.44691013  0.74256730  0.07916053    -0.75200
O1214       O  0.00189531  0.69299385  0.12372617    -0.74600
O1215       O  0.46280408  0.75877003  0.10687457    -0.75100
O1216       O  0.03635527  0.79791657  0.10141983    -0.75000
O1217       O  0.05562735  0.79196976  0.07606034    -0.74800
C1218       C  0.50016176  0.72739271  0.03852299     0.77000
C1219       C  0.43078369  0.65014698  0.08660931     0.77500
C1220       C  0.06224660  0.70880319  0.08587931     0.76500
C1221       C  0.00788859  0.71363228  0.13537140     0.76800
C1222       C  0.44594115  0.75598031  0.09339835     0.78000
C1223       C  0.05449499  0.80921608  0.08813024     0.77000
Zn1224     Zn  0.08054335  0.70545386  0.26339715     1.49700
Zn1225     Zn  0.04908368  0.63534728  0.26290607     1.49400
Zn1226     Zn  0.02112238  0.66866512  0.24036664     1.49100
Zn1227     Zn  0.08477740  0.67261701  0.22824564     1.49500
O1228       O  0.05883159  0.67040656  0.24834642    -1.84300
O1229       O  0.07431668  0.69514424  0.28923600    -0.74900
O1230       O  0.00679777  0.60262134  0.25687727    -0.74700
O1231       O  0.01797963  0.70538547  0.24968115    -0.74200
O1232       O  0.05259306  0.64436225  0.28946319    -0.74900
O1233       O  0.06653028  0.73488573  0.25842794    -0.74500
O1234       O  0.48626569  0.62541866  0.24378225    -0.75100
O1235       O  0.06810950  0.68110122  0.20477251    -0.74500
O1236       O  0.07609890  0.61836084  0.25620259    -0.75200
O1237       O  0.02418862  0.67666195  0.21430920    -0.74600
O1238       O  0.08906719  0.63395524  0.22809345    -0.75100
O1239       O  0.12864885  0.70689240  0.23270824    -0.75000
O1240       O  0.12521744  0.72571630  0.25888713    -0.74800
C1241       C  0.06375651  0.66996228  0.29767204     0.77000
C1242       C  0.48530536  0.60118406  0.24979368     0.77500
C1243       C  0.04071370  0.73161433  0.25394349     0.76500
C1244       C  0.04347737  0.68206798  0.20194033     0.76800
C1245       C  0.08821560  0.61757441  0.24142909     0.78000
C1246       C  0.14114185  0.72478312  0.24600288     0.77000
Zn1247     Zn  0.32736163  0.85970073  0.23927531     1.49700
Zn1248     Zn  0.29174868  0.88345728  0.26278511     1.49400
Zn1249     Zn  0.36182324  0.91873307  0.26278836     1.49100
Zn1250     Zn  0.32635251  0.92092053  0.22796153     1.49500
O1251       O  0.32682799  0.89589442  0.24784070    -1.84300
O1252       O  0.29185569  0.82067975  0.24941745    -0.74900
O1253       O  0.30141052  0.88524021  0.28879797    -0.74700
O1254       O  0.39360573  0.90796912  0.25681017    -0.74200
O1255       O  0.26205502  0.84007230  0.25713732    -0.74900
O1256       O  0.37028834  0.86489278  0.24085308    -0.74500
O1257       O  0.35232070  0.91075398  0.28916755    -0.75100
O1258       O  0.36747775  0.96188531  0.22809219    -0.74500
O1259       O  0.27297241  0.90970697  0.25850186    -0.75200
O1260       O  0.38126284  0.96293062  0.25662248    -0.74600
O1261       O  0.29444366  0.93365554  0.23312165    -0.75100
O1262       O  0.31510897  0.89513535  0.20421813    -0.75000
O1263       O  0.31615491  0.85389540  0.21376738    -0.74800
C1264       C  0.26563054  0.81745025  0.25313284     0.77000
C1265       C  0.32665432  0.89659119  0.29724764     0.77500
C1266       C  0.39436451  0.88670203  0.24806379     0.76500
C1267       C  0.38463082  0.97592422  0.24153082     0.76800
C1268       C  0.27604018  0.92835476  0.24613246     0.78000
C1269       C  0.31127985  0.86820350  0.20143100     0.77000
Zn1270     Zn  0.24443442  0.74655184  0.10791691     1.49700
Zn1271     Zn  0.24766530  0.78188526  0.07177150     1.49400
Zn1272     Zn  0.30627892  0.80873744  0.09681774     1.49100
Zn1273     Zn  0.28473740  0.74842018  0.07405639     1.49500
O1274       O  0.27071386  0.77134291  0.08794811    -1.84300
O1275       O  0.20087850  0.73734287  0.10370988    -0.74900
O1276       O  0.26140293  0.82616571  0.07468189    -0.74700
O1277       O  0.29962480  0.81401238  0.12234887    -0.74200
O1278       O  0.20266830  0.75739061  0.07700372    -0.74900
O1279       O  0.25895724  0.77128508  0.13191665    -0.74500
O1280       O  0.30848999  0.84713447  0.08625006    -0.75100
O1281       O  0.32813206  0.76166522  0.08061375    -0.74500
O1282       O  0.25444050  0.77583193  0.04604397    -0.75200
O1283       O  0.34550101  0.80593515  0.09531705    -0.74600
O1284       O  0.28301482  0.75382999  0.04730753    -0.75100
O1285       O  0.25862762  0.70391123  0.08000393    -0.75000
O1286       O  0.23920540  0.70299338  0.10690309    -0.74800
C1287       C  0.18760880  0.74182010  0.09052564     0.77000
C1288       C  0.28635094  0.84953317  0.07968271     0.77500
C1289       C  0.28077506  0.79889469  0.13469481     0.76500
C1290       C  0.34947735  0.78468199  0.08878723     0.76800
C1291       C  0.26926653  0.76478115  0.03827933     0.78000
C1292       C  0.24330966  0.68916299  0.09369238     0.77000
Zn1293     Zn  0.24020280  0.52577621  0.10410691     1.49700
Zn1294     Zn  0.25493495  0.50074687  0.06859863     1.49400
Zn1295     Zn  0.20855642  0.95741254  0.09521462     1.49100
Zn1296     Zn  0.19139688  0.49970045  0.07177465     1.49500
O1297       O  0.22362568  0.49674127  0.08460851    -1.84300
O1298       O  0.28757845  0.54783454  0.10365406    -0.74900
O1299       O  0.26425438  0.96552005  0.07047551    -0.74700
O1300       O  0.19259703  0.95758995  0.11968232    -0.74200
O1301       O  0.29374658  0.53764198  0.07546887    -0.74900
O1302       O  0.21709367  0.50591746  0.12755256    -0.74500
O1303       O  0.23798387  0.94077235  0.09461314    -0.75100
O1304       O  0.15164112  0.96022123  0.07773587    -0.74500
O1305       O  0.24388015  0.50278157  0.04319273    -0.75200
O1306       O  0.17099822  0.92921385  0.08199630    -0.74600
O1307       O  0.19837529  0.49978246  0.04475693    -0.75100
O1308       O  0.19327069  0.54067460  0.07853963    -0.75000
O1309       O  0.23004172  0.55856529  0.09922005    -0.74800
C1310       C  0.30468538  0.55236924  0.08998050     0.77000
C1311       C  0.25742044  0.94513861  0.08241119     0.77500
C1312       C  0.19779528  0.97885497  0.13077791     0.76500
C1313       C  0.14832369  0.93336800  0.07960263     0.76800
C1314       C  0.22053312  0.50132762  0.03561244     0.78000
C1315       C  0.21136715  0.56189891  0.08932149     0.77000
Zn1316     Zn  0.13431178  0.97569218  0.25493501     1.49700
Zn1317     Zn  0.07089406  0.91362756  0.25866618     1.49400
Zn1318     Zn  0.08343880  0.95267181  0.22320107     1.49100
Zn1319     Zn  0.11713893  0.91610182  0.23055627     1.49500
O1320       O  0.10178381  0.94015057  0.24195649    -1.84300
O1321       O  0.12779782  0.96992943  0.28202490    -0.74900
O1322       O  0.03181965  0.91204767  0.25306883    -0.74700
O1323       O  0.09452685  0.49580265  0.22838716    -0.74200
O1324       O  0.08315441  0.92664234  0.28393047    -0.74900
O1325       O  0.13144482  0.51447008  0.24894159    -0.74500
O1326       O  0.03608341  0.92834325  0.22502971    -0.75100
O1327       O  0.12496108  0.92586844  0.20453571    -0.74500
O1328       O  0.06173256  0.87030264  0.25715572    -0.75200
O1329       O  0.10293224  0.95367773  0.19869222    -0.74600
O1330       O  0.09084913  0.87020767  0.23497289    -0.75100
O1331       O  0.15894839  0.93044918  0.23964426    -0.75000
O1332       O  0.17553687  0.97782664  0.25027522    -0.74800
C1333       C  0.10619241  0.94907657  0.29136091     0.77000
C1334       C  0.01997222  0.91612011  0.23906757     0.77500
C1335       C  0.11365044  0.51788988  0.23812052     0.76500
C1336       C  0.11960985  0.94232688  0.19389805     0.76800
C1337       C  0.07066161  0.85614280  0.24698696     0.78000
C1338       C  0.18030593  0.95616935  0.24536347     0.77000
Zn1339     Zn  0.42051057  0.86429806  0.73730408     1.49700
Zn1340     Zn  0.38043265  0.79413068  0.73559467     1.49400
Zn1341     Zn  0.41846932  0.82642785  0.77111702     1.49100
Zn1342     Zn  0.35908183  0.83085354  0.75980497     1.49500
O1343       O  0.39447493  0.82879209  0.75129825    -1.84300
O1344       O  0.41438166  0.85641499  0.71064665    -0.74900
O1345       O  0.40595193  0.77415840  0.73915626    -0.74700
O1346       O  0.46129383  0.86563527  0.77190081    -0.74200
O1347       O  0.38302754  0.80589351  0.70987989    -0.74900
O1348       O  0.46449276  0.88047394  0.74361681    -0.74500
O1349       O  0.42882576  0.79345786  0.76520933    -0.75100
O1350       O  0.35464618  0.82267427  0.78576494    -0.74500
O1351       O  0.33649314  0.76480908  0.74039507    -0.75200
O1352       O  0.39330635  0.81636988  0.79478743    -0.74600
O1353       O  0.31898799  0.79505668  0.75039711    -0.75100
O1354       O  0.36566432  0.87417615  0.75709683    -0.75000
O1355       O  0.41143287  0.89727082  0.74389743    -0.74800
C1356       C  0.39819626  0.83156785  0.70197856     0.77000
C1357       C  0.42395244  0.77611838  0.75169063     0.77500
C1358       C  0.47703237  0.88217519  0.75866575     0.76500
C1359       C  0.36833308  0.81654453  0.79790886     0.76800
C1360       C  0.31452983  0.76893214  0.74511196     0.78000
C1361       C  0.38919887  0.89836056  0.75123906     0.77000
Zn1362     Zn  0.28736020  0.75104267  0.92603322     1.49700
Zn1363     Zn  0.24972127  0.74801491  0.89113890     1.49400
Zn1364     Zn  0.25064906  0.78504833  0.92612641     1.49100
Zn1365     Zn  0.31048551  0.81001386  0.90232117     1.49500
O1366       O  0.27443392  0.77362883  0.91117960    -1.84300
O1367       O  0.26109840  0.70614573  0.92152802    -0.74900
O1368       O  0.20769891  0.74531700  0.89121289    -0.74700
O1369       O  0.25657606  0.78029694  0.95257135    -0.74200
O1370       O  0.23798392  0.70400710  0.89583319    -0.74900
O1371       O  0.28482086  0.75786455  0.95215134    -0.74500
O1372       O  0.20615034  0.75878534  0.91944781    -0.75100
O1373       O  0.30669253  0.84797068  0.90564483    -0.74500
O1374       O  0.27440127  0.76195946  0.86736321    -0.75200
O1375       O  0.26337106  0.82933469  0.92136010    -0.74600
O1376       O  0.31484619  0.80574681  0.87632921    -0.75100
O1377       O  0.34961622  0.81311029  0.91176008    -0.75000
O1378       O  0.33098811  0.76475078  0.92098774    -0.74800
C1379       C  0.24285803  0.69085460  0.90892176     0.77000
C1380       C  0.19275529  0.74642573  0.90476825     0.77500
C1381       C  0.27139516  0.76956260  0.96075209     0.76500
C1382       C  0.28579293  0.85131511  0.91313435     0.76800
C1383       C  0.30046481  0.78589527  0.86425900     0.78000
C1384       C  0.35335108  0.79088438  0.91664723     0.77000
Zn1385     Zn  0.20753067  0.58593113  0.76314416     1.49700
Zn1386     Zn  0.16074936  0.58841977  0.73784927     1.49400
Zn1387     Zn  0.16430577  0.52654262  0.74138494     1.49100
Zn1388     Zn  0.13894200  0.54892728  0.77330174     1.49500
O1389       O  0.16713675  0.56201622  0.75365403    -1.84300
O1390       O  0.22430679  0.63153845  0.76112897    -0.74900
O1391       O  0.16018113  0.57533648  0.71244395    -0.74700
O1392       O  0.20307515  0.52441964  0.74700101    -0.74200
O1393       O  0.19482040  0.63243969  0.73939406    -0.74900
O1394       O  0.23493034  0.57484267  0.75034135    -0.74500
O1395       O  0.16527719  0.53390002  0.71463787    -0.75100
O1396       O  0.10512236  0.50583574  0.76849571    -0.74500
O1397       O  0.12333507  0.58997497  0.74551168    -0.75200
O1398       O  0.12309624  0.98745575  0.74772060    -0.74600
O1399       O  0.11884665  0.57552288  0.77396858    -0.75100
O1400       O  0.16019802  0.54696256  0.79627924    -0.75000
O1401       O  0.20900390  0.57352814  0.78822625    -0.74800
C1402       C  0.21743803  0.64627112  0.74999266     0.77000
C1403       C  0.16362136  0.55422090  0.70527027     0.77500
C1404       C  0.23015546  0.54768911  0.74822576     0.76500
C1405       C  0.10171200  0.98393849  0.75840463     0.76800
C1406       C  0.11179460  0.58746046  0.76103438     0.78000
C1407       C  0.18856377  0.55699947  0.79957477     0.77000
Zn1408     Zn  0.20122243  0.50504343  0.92136913     1.49700
Zn1409     Zn  0.26366490  0.50510838  0.92661456     1.49400
Zn1410     Zn  0.22636147  0.97781279  0.89040508     1.49100
Zn1411     Zn  0.26096637  0.54752881  0.89798692     1.49500
O1412       O  0.23730728  0.50839189  0.90937158    -1.84300
O1413       O  0.20379632  0.00156996  0.94822935    -0.74900
O1414       O  0.26866369  0.96946876  0.92050522    -0.74700
O1415       O  0.18298145  0.94509098  0.89426387    -0.74200
O1416       O  0.24698113  0.00034285  0.95123402    -0.74900
O1417       O  0.16315918  0.96521719  0.91283640    -0.74500
O1418       O  0.25177194  0.95624786  0.89264675    -0.75100
O1419       O  0.25091732  0.54534178  0.87210749    -0.74500
O1420       O  0.30611362  0.54119541  0.92666406    -0.75200
O1421       O  0.22535033  0.99585348  0.86600798    -0.74600
O1422       O  0.30651595  0.56689994  0.90245439    -0.75100
O1423       O  0.24633201  0.57495608  0.90656098    -0.75000
O1424       O  0.19835813  0.54324596  0.91583394    -0.74800
C1425       C  0.22339249  0.99941118  0.95803284     0.77000
C1426       C  0.26500300  0.95348752  0.90655723     0.77500
C1427       C  0.16032136  0.94331247  0.90281212     0.76500
C1428       C  0.23440547  0.52322041  0.86165468     0.76800
C1429       C  0.32033102  0.56258763  0.91541485     0.78000
C1430       C  0.21976617  0.56976843  0.91098568     0.77000
Zn1431     Zn  0.03256918  0.75301040  0.89182231     1.49700
Zn1432     Zn  0.00876136  0.70506188  0.92455747     1.49400
Zn1433     Zn  0.00903065  0.76855966  0.92779987     1.49100
Zn1434     Zn  0.46412379  0.71841062  0.90233017     1.49500
O1435       O  0.00469962  0.73670902  0.91180641    -1.84300
O1436       O  0.06526851  0.74226328  0.89582223    -0.74900
O1437       O  0.00926114  0.71238484  0.95147075    -0.74700
O1438       O  0.04599264  0.80759534  0.92076679    -0.74200
O1439       O  0.04867871  0.70626277  0.91683858    -0.74900
O1440       O  0.05462276  0.80045640  0.89253576    -0.74500
O1441       O  0.01007159  0.75700375  0.95333432    -0.75100
O1442       O  0.44662280  0.74647563  0.90305379    -0.74500
O1443       O  0.46937691  0.66353183  0.92121557    -0.75200
O1444       O  0.47400132  0.77728442  0.92524756    -0.74600
O1445       O  0.43729761  0.68127741  0.91617663    -0.75100
O1446       O  0.46303974  0.70342055  0.87752451    -0.75000
O1447       O  0.01120325  0.73046008  0.86823401    -0.74800
C1448       C  0.06889591  0.72336271  0.90534082     0.77000
C1449       C  0.00880452  0.73355534  0.96069549     0.77500
C1450       C  0.05999037  0.81817430  0.90607255     0.76500
C1451       C  0.45221171  0.76799346  0.91402685     0.76800
C1452       C  0.44227094  0.65951745  0.91994627     0.78000
C1453       C  0.48330114  0.71024111  0.86554489     0.77000
Zn1454     Zn  0.44788571  0.58633143  0.77634011     1.49700
Zn1455     Zn  0.47229349  0.63523496  0.74387085     1.49400
Zn1456     Zn  0.40907960  0.57255005  0.74040724     1.49100
Zn1457     Zn  0.41370301  0.62091617  0.76695114     1.49500
O1458       O  0.43636909  0.60367643  0.75667622    -1.84300
O1459       O  0.99001977  0.59563429  0.77159743    -0.74900
O1460       O  0.46676107  0.62765397  0.71687964    -0.74700
O1461       O  0.40860264  0.53419115  0.74670947    -0.74200
O1462       O  0.00994824  0.63303564  0.75152705    -0.74900
O1463       O  0.42311322  0.53870451  0.77525287    -0.74500
O1464       O  0.42182080  0.58429159  0.71492982    -0.75100
O1465       O  0.36783574  0.59351549  0.76476131    -0.74500
O1466       O  0.47516006  0.67684555  0.74825845    -0.75200
O1467       O  0.36557907  0.56322532  0.74254021    -0.74600
O1468       O  0.42589903  0.65993494  0.75479763    -0.75100
O1469       O  0.42718247  0.63458489  0.79202834    -0.75000
O1470       O  0.45108090  0.60945256  0.79998200    -0.74800
C1471       C  0.01255541  0.61444108  0.76205983     0.77000
C1472       C  0.44510172  0.60665570  0.70760762     0.77500
C1473       C  0.41241023  0.52267520  0.76095958     0.76500
C1474       C  0.35247567  0.57239405  0.75340849     0.76800
C1475       C  0.45272693  0.68151093  0.75099768     0.78000
C1476       C  0.44316282  0.62956384  0.80321111     0.77000
C1477       C  0.47387710  0.69194808  0.84861648    -0.06200
C1478       C  0.99320501  0.68291773  0.84062530    -0.17400
C1479       C  0.48418330  0.66235758  0.82632329     0.10900
C1480       C  0.45387385  0.64937207  0.81955937    -0.06200
C1481       C  0.43449710  0.65908399  0.82704912    -0.17400
C1482       C  0.44412853  0.68027030  0.84125933     0.11000
S1483       S  0.01226834  0.65548448  0.81596906    -0.32400
S1484       S  0.41861491  0.69327900  0.84927519    -0.32400
H1485       H  0.39445828  0.67649823  0.83719501     0.29000
H1486       H  0.00415994  0.65822069  0.79835708     0.29000
H1487       H  0.01634811  0.69230010  0.84572455     0.19600
H1488       H  0.41172936  0.65028356  0.82152390     0.19600
C1489       C  0.08315418  0.85171395  0.90491373    -0.06200
C1490       C  0.09799849  0.86382294  0.88852647    -0.17400
C1491       C  0.12138652  0.89456931  0.88694995     0.10900
C1492       C  0.13083668  0.91393111  0.90214088    -0.06200
C1493       C  0.11453931  0.90277568  0.91807928    -0.17400
C1494       C  0.09124423  0.87214923  0.91976576     0.11000
S1495       S  0.13809414  0.90776847  0.86515504    -0.32400
S1496       S  0.07451163  0.86100881  0.94169551    -0.32400
H1497       H  0.08543048  0.84036063  0.94415162     0.29000
H1498       H  0.14532115  0.93842312  0.86778514     0.29000
H1499       H  0.09167056  0.84920075  0.87681731     0.19600
H1500       H  0.12149743  0.91745427  0.92979790     0.19600
C1501       C  0.35347406  0.58305906  0.91774160    -0.06200
C1502       C  0.36400350  0.59913094  0.93390844    -0.17400
C1503       C  0.39462011  0.62225803  0.93590647     0.10900
C1504       C  0.41516226  0.62904794  0.92155952    -0.06200
C1505       C  0.40521552  0.61118061  0.90599185    -0.17400
C1506       C  0.37456992  0.58819253  0.90393708     0.11000
S1507       S  0.40556112  0.64423074  0.95637376    -0.32400
S1508       S  0.36353850  0.56713487  0.88317495    -0.32400
H1509       H  0.33967715  0.53970269  0.89040298     0.29000
H1510       H  0.43721542  0.65503031  0.95489672     0.29000
H1511       H  0.34791609  0.59491512  0.94464524     0.19600
H1512       H  0.42085198  0.61674088  0.89483230     0.19600
C1513       C  0.08942530  0.59840523  0.76358754    -0.06200
C1514       C  0.08923305  0.61925321  0.75107781    -0.17400
C1515       C  0.06568610  0.62647852  0.75067275     0.10900
C1516       C  0.04136032  0.61273450  0.76315958    -0.06200
C1517       C  0.04313916  0.59401105  0.77659568    -0.17400
C1518       C  0.06666939  0.58689618  0.77703588     0.11000
S1519       S  0.06759868  0.65216909  0.73334297    -0.32400
S1520       S  0.06472755  0.56124895  0.79443236    -0.32400
H1521       H  0.09384658  0.58250399  0.80127852     0.29000
H1522       H  0.53976111  0.62870530  0.72517459     0.29000
H1523       H  0.10700721  0.62919017  0.74098447     0.19600
H1524       H  0.02542313  0.58384277  0.78670451     0.19600
C1525       C  0.31894115  0.55917319  0.75219071    -0.06200
C1526       C  0.30580087  0.55605861  0.73519432    -0.17400
C1527       C  0.27524203  0.54887509  0.73327653     0.10900
C1528       C  0.25727756  0.54413442  0.74864903    -0.06200
C1529       C  0.26968464  0.54491677  0.76553524    -0.17400
C1530       C  0.30022203  0.55223971  0.76748368     0.11000
S1531       S  0.26145828  0.54918395  0.71107767    -0.32400
S1532       S  0.31413723  0.55340697  0.78983062    -0.32400
H1533       H  0.33516965  0.54396653  0.78497481     0.29000
H1534       H  0.23009099  0.53036189  0.71494693     0.29000
H1535       H  0.31995969  0.56121904  0.72336533     0.19600
H1536       H  0.25603395  0.54174779  0.77739322     0.19600
C1537       C  0.19888002  0.54842044  0.81623326    -0.06200
C1538       C  0.22985770  0.56674188  0.82134616    -0.17400
C1539       C  0.24268854  0.55806875  0.83517054     0.10900
C1540       C  0.22430158  0.53039278  0.84457048    -0.06200
C1541       C  0.19344971  0.51185008  0.83943457    -0.17400
C1542       C  0.18051485  0.52060708  0.82563608     0.11000
S1543       S  0.28296751  0.58306805  0.83978369    -0.32400
S1544       S  0.14221970  0.99441991  0.81952628    -0.32400
H1545       H  0.13231855  0.51722536  0.82374297     0.29000
H1546       H  0.28849642  0.55931108  0.84486206     0.29000
H1547       H  0.24458588  0.58789905  0.81425518     0.19600
H1548       H  0.18018928  0.99096785  0.84599609     0.19600
C1549       C  0.38393756  0.79427501  0.91656730    -0.06200
C1550       C  0.39675236  0.79413475  0.89997944    -0.17400
C1551       C  0.42070034  0.78770423  0.89875824     0.10900
C1552       C  0.43194345  0.78122014  0.91447026    -0.06200
C1553       C  0.42088926  0.78410640  0.93114126    -0.17400
C1554       C  0.39686735  0.79037000  0.93233321     0.11000
S1555       S  0.43512130  0.78700870  0.87681643    -0.32400
S1556       S  0.38211175  0.79083466  0.95421742    -0.32400
H1557       H  0.36959444  0.80941598  0.94956868     0.29000
H1558       H  0.46521161  0.79633578  0.88246264     0.29000
H1559       H  0.38670919  0.79700333  0.88783994     0.19600
H1560       H  0.42959849  0.77944859  0.94327259     0.19600
C1561       C  0.15915406  0.73399005  0.90357494    -0.06200
C1562       C  0.14702423  0.73986478  0.88824073    -0.17400
C1563       C  0.11663393  0.73396484  0.88784647     0.10900
C1564       C  0.09817049  0.72290791  0.90344022    -0.06200
C1565       C  0.10941424  0.71404580  0.91807729    -0.17400
C1566       C  0.13934303  0.71880640  0.91812504     0.11000
S1567       S  0.10194270  0.74049125  0.86724861    -0.32400
S1568       S  0.15082657  0.70467304  0.93703171    -0.32400
H1569       H  0.17128645  0.69869740  0.92738197     0.29000
H1570       H  0.12801938  0.74866912  0.85668084     0.29000
H1571       H  0.16182623  0.75036032  0.87682324     0.19600
H1572       H  0.09521592  0.70424271  0.92981009     0.19600
C1573       C  0.21454680  0.59580839  0.90968377    -0.06200
C1574       C  0.21256939  0.60967850  0.92543827    -0.17400
C1575       C  0.21889119  0.64014440  0.92534029     0.10900
C1576       C  0.22804167  0.65710527  0.90921659    -0.06200
C1577       C  0.22638906  0.64193905  0.89319680    -0.17400
C1578       C  0.21963108  0.61143154  0.89326519     0.11000
S1579       S  0.21599357  0.65636607  0.94625017    -0.32400
S1580       S  0.22064769  0.59454049  0.87216194    -0.32400
H1581       H  0.20182897  0.56378094  0.87746821     0.29000
H1582       H  0.20798890  0.67693914  0.93855735     0.29000
H1583       H  0.20830724  0.59756857  0.93801856     0.19600
H1584       H  0.23256958  0.65448939  0.88070347     0.19600
C1585       C  0.28645440  0.88087401  0.91164898    -0.06200
C1586       C  0.28604267  0.89224149  0.89459453    -0.17400
C1587       C  0.28082921  0.91699391  0.89234752     0.10900
C1588       C  0.27508644  0.93026243  0.90749083    -0.06200
C1589       C  0.27762413  0.91996124  0.92456837    -0.17400
C1590       C  0.28351858  0.89583509  0.92677651     0.11000
S1591       S  0.28209968  0.93053010  0.86993586    -0.32400
S1592       S  0.28683451  0.88509387  0.94926930    -0.32400
H1593       H  0.30683925  0.87405612  0.94506663     0.29000
H1594       H  0.29759303  0.96182405  0.87476308     0.29000
H1595       H  0.28880931  0.88111235  0.88289699     0.19600
H1596       H  0.27414966  0.93017480  0.93645876     0.19600
C1597       C  0.07163314  0.95450146  0.75906306    -0.06200
C1598       C  0.05381395  0.94761588  0.77473165    -0.17400
C1599       C  0.02322903  0.92349154  0.77536136     0.10900
C1600       C  0.00993323  0.90473717  0.76016660    -0.06200
C1601       C  0.02845674  0.91010123  0.74498894    -0.17400
C1602       C  0.05867800  0.93479402  0.74413712     0.11000
S1603       S  0.00178485  0.91981840  0.79536491    -0.32400
S1604       S  0.07810406  0.94125098  0.72302867    -0.32400
H1605       H  0.08529280  0.97211664  0.72186277     0.29000
H1606       H  0.47692859  0.91835847  0.78606312     0.29000
H1607       H  0.06324172  0.96220786  0.78638408     0.19600
H1608       H  0.01872016  0.89586762  0.73322609     0.19600
C1609       C  0.28370447  0.74172575  0.74549091    -0.06200
C1610       C  0.27110680  0.72960899  0.76226142    -0.17400
C1611       C  0.24781831  0.69893216  0.76405769     0.10900
C1612       C  0.23694210  0.67996238  0.74875739    -0.06200
C1613       C  0.24744226  0.69301568  0.73183200    -0.17400
C1614       C  0.27079503  0.72364730  0.73005892     0.11000
S1615       S  0.23378056  0.68505287  0.78623004    -0.32400
S1616       S  0.28473324  0.73782826  0.70790077    -0.32400
H1617       H  0.29707001  0.76915121  0.71205606     0.29000
H1618       H  0.20394512  0.66295920  0.78082639     0.29000
H1619       H  0.28100524  0.74340860  0.77416093     0.19600
H1620       H  0.23885215  0.67876389  0.71998582     0.19600
C1621       C  0.40455731  0.98983652  0.75914928    -0.06200
C1622       C  0.41166082  0.98108130  0.74280610    -0.17400
C1623       C  0.40515923  0.95112658  0.73961140     0.10900
C1624       C  0.39180852  0.92885425  0.75321143    -0.06200
C1625       C  0.38440634  0.93726184  0.76961687    -0.17400
C1626       C  0.39041674  0.96744076  0.77268486     0.11000
S1627       S  0.41411904  0.94286995  0.71766898    -0.32400
S1628       S  0.37896999  0.97560050  0.79382979    -0.32400
H1629       H  0.37077571  0.49607691  0.78758021     0.29000
H1630       H  0.38888930  0.91277212  0.71678878     0.29000
H1631       H  0.42238431  0.99784301  0.73221713     0.19600
H1632       H  0.37440045  0.92039587  0.78020608     0.19600
C1633       C  0.43890324  0.75719477  0.75089555    -0.06200
C1634       C  0.44463470  0.74686614  0.76704929    -0.17400
C1635       C  0.45374600  0.72484658  0.76726746     0.10900
C1636       C  0.45688580  0.71244370  0.75103162    -0.06200
C1637       C  0.45412059  0.72475099  0.73484999    -0.17400
C1638       C  0.44580106  0.74751377  0.73460654     0.11000
S1639       S  0.45792784  0.71111902  0.78875614    -0.32400
S1640       S  0.44397060  0.76275811  0.71314438    -0.32400
H1641       H  0.45422010  0.79275404  0.71946840     0.29000
H1642       H  0.47734573  0.70025658  0.78290478     0.29000
H1643       H  0.44028203  0.75459806  0.77964522     0.19600
H1644       H  0.45656549  0.71528027  0.72236471     0.19600
C1645       C  0.31586709  0.79166231  0.84662971    -0.06200
C1646       C  0.32754090  0.82110359  0.83925000    -0.17400
C1647       C  0.34623200  0.83022486  0.82407358     0.10900
C1648       C  0.35382075  0.80959711  0.81579637    -0.06200
C1649       C  0.34222923  0.78005829  0.82310289    -0.17400
C1650       C  0.32361286  0.77098434  0.83848752     0.11000
S1651       S  0.35976529  0.86871682  0.81590846    -0.32400
S1652       S  0.31112512  0.73312980  0.84726135    -0.32400
H1653       H  0.31425130  0.74173654  0.86534887     0.29000
H1654       H  0.38737051  0.87289224  0.80864552     0.29000
H1655       H  0.32241951  0.83744234  0.84558259     0.19600
H1656       H  0.34722969  0.76377044  0.81660602     0.19600
C1657       C  0.21927072  0.50011549  0.01575387    -0.06200
C1658       C  0.23296771  0.98513744  0.00687292    -0.17400
C1659       C  0.23277029  0.98282268  0.98827408     0.10900
C1660       C  0.22011507  0.49701932  0.97789652    -0.06200
C1661       C  0.20481627  0.51036712  0.98654945    -0.17400
C1662       C  0.20436639  0.51218322  0.00525378     0.11000
S1663       S  0.24879601  0.96075930  0.97894705    -0.32400
S1664       S  0.18625263  0.53202582  0.01473577    -0.32400
H1665       H  0.21004658  0.54856945  0.02703902     0.29000
H1666       H  0.22650646  0.94714614  0.96541999     0.29000
H1667       H  0.24353685  0.97465317  0.01458139     0.19600
H1668       H  0.19433155  0.52077333  0.97870390     0.19600
C1669       C  0.17765224  0.97047199  0.14700398    -0.06200
C1670       C  0.16192965  0.93946348  0.15246826    -0.17400
C1671       C  0.14098635  0.92922836  0.16668317     0.10900
C1672       C  0.13574831  0.95036753  0.17634508    -0.06200
C1673       C  0.15067779  0.98118067  0.17068789    -0.17400
C1674       C  0.17099522  0.99131135  0.15606912     0.11000
S1675       S  0.12107249  0.88860750  0.17153106    -0.32400
S1676       S  0.18360902  0.52930963  0.14866955    -0.32400
H1677       H  0.17609868  0.52120079  0.13061125     0.29000
H1678       H  0.09403240  0.88733387  0.17767151     0.29000
H1679       H  0.16565015  0.92273304  0.14545562     0.19600
H1680       H  0.14699235  0.99772817  0.17794988     0.19600
C1681       C  0.27076230  0.76561175  0.01844294    -0.06200
C1682       C  0.26898341  0.78940127  0.00967277    -0.17400
C1683       C  0.27035580  0.79201763  0.99106727     0.10900
C1684       C  0.27260242  0.76979810  0.98059691    -0.06200
C1685       C  0.27517772  0.74640535  0.98934915    -0.17400
C1686       C  0.27404501  0.74390014  0.00801447     0.11000
S1687       S  0.27080937  0.82523766  0.98171029    -0.32400
S1688       S  0.27515341  0.71148403  0.01746705    -0.32400
H1689       H  0.25118276  0.70418868  0.02965068     0.29000
H1690       H  0.29347910  0.83064862  0.96893553     0.29000
H1691       H  0.26725583  0.80671704  0.01741839     0.19600
H1692       H  0.27695157  0.72915172  0.98157014     0.19600
C1693       C  0.28790022  0.87953374  0.07889353    -0.06200
C1694       C  0.29198898  0.89558309  0.09495518    -0.17400
C1695       C  0.28389072  0.91845865  0.09632661     0.10900
C1696       C  0.27123879  0.92526622  0.08135866    -0.06200
C1697       C  0.26991320  0.91119953  0.06492209    -0.17400
C1698       C  0.27809658  0.88848128  0.06353516     0.11000
S1699       S  0.28968409  0.93765031  0.11752672    -0.32400
S1700       S  0.27401112  0.87054322  0.04203207    -0.32400
H1701       H  0.29571736  0.86122194  0.04516850     0.29000
H1702       H  0.29464633  0.96566730  0.11038331     0.29000
H1703       H  0.29959040  0.88888791  0.10680331     0.19600
H1704       H  0.26093726  0.91680602  0.05324810     0.19600
C1705       C  0.23008160  0.65515394  0.09355241    -0.06200
C1706       C  0.22161031  0.63988512  0.07693483    -0.17400
C1707       C  0.21334749  0.60889612  0.07517404     0.10900
C1708       C  0.21252978  0.59202761  0.09043930    -0.06200
C1709       C  0.21841486  0.60656125  0.10723898    -0.17400
C1710       C  0.22752197  0.63779809  0.10894759     0.11000
S1711       S  0.20711315  0.59333007  0.05291363    -0.32400
S1712       S  0.23828614  0.65454652  0.13088892    -0.32400
H1713       H  0.26607836  0.67997195  0.12522099     0.29000
H1714       H  0.22714076  0.58161066  0.05495008     0.29000
H1715       H  0.22292287  0.65263933  0.06498021     0.19600
H1716       H  0.21785756  0.59393274  0.11909808     0.19600
C1717       C  0.42449985  0.88881866  0.24600387    -0.06200
C1718       C  0.43576717  0.88914255  0.22878503    -0.17400
C1719       C  0.46652916  0.89706513  0.22604945     0.10900
C1720       C  0.48666469  0.90522402  0.24085719    -0.06200
C1721       C  0.47484016  0.90420584  0.25804444    -0.17400
C1722       C  0.44430765  0.89595259  0.26075787     0.11000
S1723       S  0.47839315  0.89620298  0.20348671    -0.32400
S1724       S  0.43213116  0.89529319  0.28348689    -0.32400
H1725       H  0.40180707  0.87137794  0.28072512     0.29000
H1726       H  0.99523517  0.88033457  0.20868322     0.29000
H1727       H  0.42079263  0.88416268  0.21734710     0.19600
H1728       H  0.48961590  0.91025587  0.26966077     0.19600
C1729       C  0.21113848  0.95992431  0.24569663    -0.06200
C1730       C  0.22286640  0.95701568  0.26206172    -0.17400
C1731       C  0.24574888  0.94879744  0.26270131     0.10900
C1732       C  0.25675799  0.94303949  0.24653919    -0.06200
C1733       C  0.24710063  0.94913093  0.23024046    -0.17400
C1734       C  0.22449357  0.95749004  0.22966803     0.11000
S1735       S  0.26002024  0.94516059  0.28420298    -0.32400
S1736       S  0.21155876  0.96208002  0.20799701    -0.32400
H1737       H  0.19997165  0.98094766  0.21378717     0.29000
H1738       H  0.24368098  0.95545216  0.29464124     0.29000
H1739       H  0.21241193  0.95883947  0.27430277     0.19600
H1740       H  0.25578063  0.94551268  0.21777387     0.19600
C1741       C  0.30013859  0.85146234  0.18401942    -0.06200
C1742       C  0.28349976  0.81893365  0.18444125    -0.17400
C1743       C  0.27538819  0.80102491  0.16881422     0.10900
C1744       C  0.28477318  0.81555616  0.15203002    -0.06200
C1745       C  0.30023801  0.84809137  0.15159939    -0.17400
C1746       C  0.30753983  0.86597222  0.16719836     0.11000
S1747       S  0.25482046  0.75990377  0.17136493    -0.32400
S1748       S  0.32820302  0.90710212  0.16472046    -0.32400
H1749       H  0.30587736  0.91079153  0.17392015     0.29000
H1750       H  0.22976619  0.75610269  0.16105177     0.29000
H1751       H  0.27704045  0.80716050  0.19715452     0.19600
H1752       H  0.30706564  0.85996061  0.13890842     0.19600
C1753       C  0.10043515  0.59617153  0.23981977    -0.06200
C1754       C  0.09683081  0.58067901  0.22362442    -0.17400
C1755       C  0.10346897  0.55677158  0.22224006     0.10900
C1756       C  0.11332064  0.54734621  0.23752720    -0.06200
C1757       C  0.11907523  0.56437511  0.25334324    -0.17400
C1758       C  0.11319404  0.58878455  0.25459149     0.11000
S1759       S  0.09870843  0.53926025  0.20055742    -0.32400
S1760       S  0.12249871  0.60947603  0.27547655    -0.32400
H1761       H  0.13171583  0.63827249  0.26765662     0.29000
H1762       H  0.12322740  0.53355689  0.20256857     0.29000
H1763       H  0.08779452  0.58651137  0.21207269     0.19600
H1764       H  0.12713630  0.55793199  0.26508709     0.19600
C1765       C  0.05776911  0.82284577  0.24957269    -0.06200
C1766       C  0.04587509  0.80303839  0.23484486    -0.17400
C1767       C  0.03600858  0.77165438  0.23646352     0.10900
C1768       C  0.03890112  0.75992245  0.25304535    -0.06200
C1769       C  0.04956262  0.77955935  0.26791259    -0.17400
C1770       C  0.05867024  0.81068349  0.26640994     0.11000
S1771       S  0.02361096  0.74859479  0.21647649    -0.32400
S1772       S  0.07532182  0.83460172  0.28581645    -0.32400
H1773       H  0.05270959  0.84320726  0.28665725     0.29000
H1774       H  0.99839810  0.72355351  0.22469968     0.29000
H1775       H  0.04497899  0.81222107  0.22190581     0.19600
H1776       H  0.05276518  0.77099928  0.28054860     0.19600
C1777       C  0.40974251  0.50892159  0.24110477    -0.06200
C1778       C  0.40501293  0.53381031  0.23811134    -0.17400
C1779       C  0.42872401  0.56427469  0.24103688     0.10900
C1780       C  0.45795219  0.57001026  0.24699632    -0.06200
C1781       C  0.46243502  0.54470268  0.24929523    -0.17400
C1782       C  0.43907803  0.51467827  0.24623919     0.11000
S1783       S  0.41958300  0.59427263  0.23769474    -0.32400
S1784       S  0.45021283  0.98432336  0.24753821    -0.32400
H1785       H  0.42876077  0.96363341  0.23515972     0.29000
H1786       H  0.43238527  0.60882680  0.25407444     0.29000
H1787       H  0.38235185  0.52943915  0.23440579     0.19600
H1788       H  0.48463357  0.54811873  0.25327648     0.19600
C1789       C  0.23775234  0.78751886  0.25141100    -0.06200
C1790       C  0.22491757  0.77925068  0.23427412    -0.17400
C1791       C  0.19356375  0.75856936  0.23193543     0.10900
C1792       C  0.17485027  0.74477640  0.24706603    -0.06200
C1793       C  0.18847940  0.75138219  0.26413079    -0.17400
C1794       C  0.21959256  0.77273402  0.26643729     0.11000
S1795       S  0.17849800  0.75405708  0.20960487    -0.32400
S1796       S  0.23440593  0.78186635  0.28891859    -0.32400
H1797       H  0.26534763  0.79327905  0.28431189     0.29000
H1798       H  0.15334694  0.75734180  0.21466221     0.29000
H1799       H  0.23863973  0.79143115  0.22278130     0.19600
H1800       H  0.17460148  0.74065991  0.27583772     0.19600
C1801       C  0.00198984  0.72646102  0.01814549    -0.06200
C1802       C  0.48268632  0.73534058  0.00900213    -0.17400
C1803       C  0.48405231  0.73721862  0.99032769     0.10900
C1804       C  0.00554678  0.73046422  0.98037961    -0.06200
C1805       C  0.02227894  0.71974367  0.98996006    -0.17400
C1806       C  0.02053133  0.71743417  0.00864088     0.11000
S1807       S  0.45825853  0.74713342  0.97936007    -0.32400
S1808       S  0.04172734  0.70184671  0.01943254    -0.32400
H1809       H  0.01995769  0.68644629  0.03296814     0.29000
H1810       H  0.45137579  0.72653621  0.96503095     0.29000
H1811       H  0.46748310  0.74119658  0.01603929     0.19600
H1812       H  0.03694858  0.71326081  0.98285629     0.19600
C1813       C  0.09046876  0.70734683  0.08805519    -0.06200
C1814       C  0.10565907  0.71686635  0.10453580    -0.17400
C1815       C  0.13723205  0.72774195  0.10592867     0.10900
C1816       C  0.15390686  0.72842145  0.09055459    -0.06200
C1817       C  0.13809346  0.71682699  0.07438213    -0.17400
C1818       C  0.10666987  0.70625224  0.07301854     0.11000
S1819       S  0.15525584  0.74358513  0.12713404    -0.32400
S1820       S  0.08878409  0.69318206  0.05150685    -0.32400
H1821       H  0.05867874  0.67515736  0.05799027     0.29000
H1822       H  0.18074209  0.76961595  0.11978377     0.29000
H1823       H  0.09350055  0.71862472  0.11601595     0.19600
H1824       H  0.15045664  0.71663281  0.06257866     0.19600
C1825       C  0.42466757  0.76852070  0.09358476    -0.06200
C1826       C  0.41815460  0.77750554  0.07710671    -0.17400
C1827       C  0.39567301  0.78590566  0.07553158     0.10900
C1828       C  0.37908839  0.78563843  0.09073248    -0.06200
C1829       C  0.38703344  0.77908827  0.10746983    -0.17400
C1830       C  0.40934663  0.77018720  0.10905389     0.11000
S1831       S  0.38804823  0.79526738  0.05356311    -0.32400
S1832       S  0.41472190  0.75828917  0.13078334    -0.32400
H1833       H  0.41259752  0.73083791  0.12457177     0.29000
H1834       H  0.37646705  0.81410230  0.05941745     0.29000
H1835       H  0.43010384  0.77716639  0.06514094     0.19600
H1836       H  0.37396402  0.77833685  0.11915735     0.19600
C1837       C  0.11794026  0.90573443  0.08037962    -0.06200
C1838       C  0.10580879  0.89511587  0.09745465    -0.17400
C1839       C  0.08476695  0.86399601  0.10054512     0.10900
C1840       C  0.07463906  0.84300485  0.08606200    -0.06200
C1841       C  0.08509921  0.85445265  0.06874561    -0.17400
C1842       C  0.10677693  0.88533389  0.06581606     0.11000
S1843       S  0.07491928  0.85240214  0.12347138    -0.32400
S1844       S  0.12147764  0.89675223  0.04346735    -0.32400
H1845       H  0.13182552  0.92823680  0.04575890     0.29000
H1846       H  0.08173386  0.82848323  0.12230356     0.29000
H1847       H  0.11522472  0.91055362  0.10878108     0.19600
H1848       H  0.07728256  0.83900573  0.05738536     0.19600
C1849       C  0.40054531  0.62180647  0.08723642    -0.06200
C1850       C  0.38793602  0.60825456  0.10381495    -0.17400
C1851       C  0.35696616  0.58509854  0.10532447     0.10900
C1852       C  0.33795114  0.57572816  0.08997862    -0.06200
C1853       C  0.35117770  0.58881297  0.07339317    -0.17400
C1854       C  0.38200481  0.61117946  0.07183138     0.11000
S1855       S  0.34341514  0.56832624  0.12701676    -0.32400
S1856       S  0.39623348  0.62544917  0.04970342    -0.32400
H1857       H  0.42641985  0.63189998  0.05298840     0.29000
H1858       H  0.32610461  0.53802875  0.12054611     0.29000
H1859       H  0.40202184  0.61638909  0.11573366     0.19600
H1860       H  0.33729538  0.58182179  0.06137323     0.19600
C1861       C  0.01500666  0.70739825  0.15359114    -0.06200
C1862       C  0.04420742  0.72714167  0.16081779    -0.17400
C1863       C  0.05499410  0.71862897  0.17586482     0.10900
C1864       C  0.03610478  0.68996269  0.18420919    -0.06200
C1865       C  0.00659471  0.67066192  0.17724016    -0.17400
C1866       C  0.99598017  0.67888377  0.16209399     0.11000
S1867       S  0.09240231  0.74583817  0.18435083    -0.32400
S1868       S  0.45459924  0.66991656  0.16174739    -0.32400
H1869       H  0.45584183  0.69441106  0.15198848     0.29000
H1870       H  0.10271050  0.72449906  0.18475220     0.29000
H1871       H  0.05928051  0.74875546  0.15422892     0.19600
H1872       H  0.99143982  0.64907376  0.18384287     0.19600
C1873       C  0.39410616  0.82858074  0.64460178    -0.06200
C1874       C  0.42261615  0.84274271  0.65345311    -0.17400
C1875       C  0.42456850  0.84432079  0.67208343     0.10900
C1876       C  0.39745996  0.83200771  0.68231735    -0.06200
C1877       C  0.36892323  0.81807054  0.67359267    -0.17400
C1878       C  0.36691003  0.81608001  0.65491641     0.11000
S1879       S  0.46225962  0.86099955  0.68198794    -0.32400
S1880       S  0.32902595  0.79596662  0.64524397    -0.32400
H1881       H  0.33646515  0.78035316  0.63235227     0.29000
H1882       H  0.45346084  0.83998767  0.69621132     0.29000
H1883       H  0.44369012  0.85245969  0.64578853     0.19600
H1884       H  0.34800562  0.80816374  0.68141941     0.19600
C1885       C  0.32470620  0.89100005  0.35446639    -0.06200
C1886       C  0.34289521  0.88222354  0.34473891    -0.17400
C1887       C  0.34345812  0.88309260  0.32606268     0.10900
C1888       C  0.32578004  0.89337452  0.31683045    -0.06200
C1889       C  0.30645688  0.90069693  0.32652542    -0.17400
C1890       C  0.30553353  0.89941792  0.34516762     0.11000
S1891       S  0.36673794  0.87027965  0.31486393    -0.32400
S1892       S  0.27916073  0.90847092  0.35623345    -0.32400
H1893       H  0.27253710  0.88779739  0.37045502     0.29000
H1894       H  0.34729924  0.85760405  0.29998312     0.29000
H1895       H  0.35742580  0.87542779  0.35173848     0.19600
H1896       H  0.29223632  0.90787988  0.31951834     0.19600
C1897       C  0.38596260  0.86584974  0.51365657    -0.06200
C1898       C  0.40458427  0.89676964  0.50842852    -0.17400
C1899       C  0.39551407  0.90999691  0.49500225     0.10900
C1900       C  0.36711119  0.89208151  0.48618351    -0.06200
C1901       C  0.34820863  0.86147128  0.49154621    -0.17400
C1902       C  0.35737580  0.84816224  0.50488225     0.11000
S1903       S  0.42081478  0.95019062  0.49019919    -0.32400
S1904       S  0.33097674  0.80874717  0.51022527    -0.32400
H1905       H  0.35233106  0.79920289  0.50646944     0.29000
H1906       H  0.39730045  0.95623403  0.48542092     0.29000
H1907       H  0.42628145  0.91112555  0.51513194     0.19600
H1908       H  0.32662246  0.84724630  0.48469474     0.19600
C1909       C  0.17541787  0.56050578  0.64818686    -0.06200
C1910       C  0.15776158  0.53154318  0.65621541    -0.17400
C1911       C  0.15435238  0.52847852  0.67479349     0.10900
C1912       C  0.16780561  0.55504317  0.68566691    -0.06200
C1913       C  0.18567910  0.58394350  0.67759291    -0.17400
C1914       C  0.19001256  0.58689260  0.65910830     0.11000
S1915       S  0.13061828  0.49048614  0.68369843    -0.32400
S1916       S  0.21201630  0.62510175  0.65011838    -0.32400
H1917       H  0.23337365  0.61899990  0.64168349     0.29000
H1918       H  0.15504039  0.49095184  0.69312150     0.29000
H1919       H  0.14625278  0.51115314  0.64791453     0.19600
H1920       H  0.19639440  0.60452171  0.68577507     0.19600
C1921       C  0.08063081  0.95120043  0.58278488    -0.06200
C1922       C  0.06777838  0.93991940  0.56593070    -0.17400
C1923       C  0.03697809  0.91705787  0.56416275     0.10900
C1924       C  0.01859695  0.90518459  0.57959894    -0.06200
C1925       C  0.03225564  0.91467543  0.59650625    -0.17400
C1926       C  0.06300826  0.93766162  0.59824902     0.11000
S1927       S  0.02233510  0.90474783  0.54187859    -0.32400
S1928       S  0.07802368  0.95006166  0.62048326    -0.32400
H1929       H  0.10905105  0.96183413  0.61595171     0.29000
H1930       H  0.50186648  0.87452891  0.54705779     0.29000
H1931       H  0.08121886  0.95040998  0.55402004     0.19600
H1932       H  0.01845800  0.90542640  0.60843707     0.19600
C1933       C  0.29299129  0.73928008  0.57134010    -0.06200
C1934       C  0.27927660  0.72577716  0.58766591    -0.17400
C1935       C  0.25547270  0.69510158  0.58855612     0.10900
C1936       C  0.24566993  0.67681058  0.57283787    -0.06200
C1937       C  0.25754140  0.69109001  0.55637627    -0.17400
C1938       C  0.28059205  0.72205764  0.55546745     0.11000
S1939       S  0.23848968  0.68090268  0.61017323    -0.32400
S1940       S  0.29295479  0.73844813  0.53363967    -0.32400
H1941       H  0.29824500  0.76756160  0.53896857     0.29000
H1942       H  0.20854791  0.66199415  0.60357757     0.29000
H1943       H  0.28790311  0.73882175  0.59993727     0.19600
H1944       H  0.24948508  0.67785242  0.54413430     0.19600
C1945       C  0.11353783  0.94566823  0.34878005    -0.06200
C1946       C  0.08466148  0.93320800  0.34054331    -0.17400
C1947       C  0.08166408  0.93552247  0.32214152     0.10900
C1948       C  0.10818334  0.94990815  0.31121914    -0.06200
C1949       C  0.13718144  0.96275352  0.31944409    -0.17400
C1950       C  0.14013705  0.96055058  0.33797054     0.11000
S1951       S  0.04318956  0.92072716  0.31371755    -0.32400
S1952       S  0.17832387  0.97535087  0.34673630    -0.32400
H1953       H  0.16976899  0.95101837  0.35884251     0.29000
H1954       H  0.05133680  0.94481622  0.30146114     0.29000
H1955       H  0.06403045  0.92234177  0.34861771     0.19600
H1956       H  0.15773091  0.97341675  0.31130418     0.19600
C1957       C  0.42876253  0.88399590  0.41543089    -0.06200
C1958       C  0.44265916  0.88469469  0.43179251    -0.17400
C1959       C  0.47317507  0.89163523  0.43262004     0.10900
C1960       C  0.49035263  0.89819528  0.41671202    -0.06200
C1961       C  0.47567779  0.89489672  0.40021802    -0.17400
C1962       C  0.44508794  0.88808012  0.39942008     0.11000
S1963       S  0.48919730  0.89312297  0.45440579    -0.32400
S1964       S  0.42946531  0.88864066  0.37784113    -0.32400
H1965       H  0.39861942  0.86864613  0.38236663     0.29000
H1966       H  0.01063337  0.88369831  0.44650913     0.29000
H1967       H  0.43026609  0.88191277  0.44413540     0.19600
H1968       H  0.98966841  0.90203949  0.38631863     0.19600
C1969       C  0.21399853  0.95485480  0.42366110    -0.06200
C1970       C  0.22583983  0.95428396  0.44058507    -0.17400
C1971       C  0.25115678  0.94999256  0.44245918     0.10900
C1972       C  0.26448519  0.94518152  0.42707954    -0.06200
C1973       C  0.25350475  0.94748405  0.41015531    -0.17400
C1974       C  0.22839652  0.95184242  0.40829265     0.11000
S1975       S  0.26547869  0.95149226  0.46469927    -0.32400
S1976       S  0.21418385  0.95022992  0.38598049    -0.32400
H1977       H  0.18312658  0.93069870  0.39039828     0.29000
H1978       H  0.29656696  0.96729522  0.45959459     0.29000
H1979       H  0.21509524  0.95696334  0.45245949     0.19600
H1980       H  0.26327314  0.94393735  0.39811922     0.19600
C1981       C  0.12441545  0.98522346  0.48235023    -0.06200
C1982       C  0.15279118  0.99154452  0.48956664    -0.17400
C1983       C  0.16483961  0.51057485  0.50504542     0.10900
C1984       C  0.14853569  0.52320361  0.51357653    -0.06200
C1985       C  0.11988122  0.51636197  0.50662219    -0.17400
C1986       C  0.10875715  0.99894325  0.49057200     0.11000
S1987       S  0.20235245  0.51864333  0.51234264    -0.32400
S1988       S  0.07114659  0.99088645  0.48361695    -0.32400
H1989       H  0.06042180  0.95974632  0.47963078     0.29000
H1990       H  0.21131234  0.54783849  0.51951557     0.29000
H1991       H  0.16562535  0.98205199  0.48327074     0.19600
H1992       H  0.10660607  0.52488434  0.51342238     0.19600
C1993       C  0.06569812  0.67266557  0.35500508    -0.06200
C1994       C  0.09072602  0.69480393  0.34521473    -0.17400
C1995       C  0.09093029  0.69398022  0.32660356     0.10900
C1996       C  0.06513761  0.67081990  0.31735591    -0.06200
C1997       C  0.04015151  0.64841509  0.32714872    -0.17400
C1998       C  0.04027189  0.64889445  0.34585264     0.11000
S1999       S  0.12550708  0.72232027  0.31558893    -0.32400
S2000       S  0.00802709  0.61784820  0.35717941    -0.32400
H2001       H  0.02538110  0.61527132  0.37110162     0.29000
H2002       H  0.12521698  0.70200182  0.30253662     0.29000
H2003       H  0.11054620  0.71274257  0.35215945     0.19600
H2004       H  0.02045329  0.63036275  0.32018945     0.19600
C2005       C  0.11539377  0.59858701  0.41607223    -0.06200
C2006       C  0.12186356  0.58749925  0.43163726    -0.17400
C2007       C  0.13020598  0.56495841  0.43081803     0.10900
C2008       C  0.13140423  0.55261437  0.41412155    -0.06200
C2009       C  0.12779173  0.56559290  0.39843249    -0.17400
C2010       C  0.11973605  0.58851380  0.39920928     0.11000
S2011       S  0.13608221  0.55059208  0.45164646    -0.32400
S2012       S  0.11199544  0.60124613  0.37834459    -0.32400
H2013       H  0.08500116  0.60032132  0.38423603     0.29000
H2014       H  0.15675409  0.04012445  0.44308762     0.29000
H2015       H  0.11934817  0.59568795  0.44458177     0.19600
H2016       H  0.12818905  0.55573762  0.38561210     0.19600
C2017       C  0.07398107  0.82831747  0.42525347    -0.06200
C2018       C  0.07026102  0.81218548  0.40917718    -0.17400
C2019       C  0.06536947  0.78223372  0.40902351     0.10900
C2020       C  0.06320894  0.76723365  0.42533398    -0.06200
C2021       C  0.06592613  0.78280218  0.44142004    -0.17400
C2022       C  0.07079752  0.81281167  0.44159601     0.11000
S2023       S  0.06487725  0.76565154  0.38755367    -0.32400
S2024       S  0.07199329  0.82942338  0.46312015    -0.32400
H2025       H  0.05386837  0.84210411  0.45775377     0.29000
H2026       H  0.08386541  0.75390540  0.39280720     0.29000
H2027       H  0.07275202  0.82349283  0.39646987     0.19600
H2028       H  0.06417103  0.77141408  0.45401447     0.19600
C2029       C  0.24572525  0.80160844  0.42903310    -0.06200
C2030       C  0.22848164  0.79499659  0.44484407    -0.17400
C2031       C  0.19850392  0.77011308  0.44598454     0.10900
C2032       C  0.18488160  0.75114482  0.43084528    -0.06200
C2033       C  0.20296869  0.75690852  0.41536665    -0.17400
C2034       C  0.23268600  0.78202472  0.41416148     0.11000
S2035       S  0.17907258  0.76482632  0.46699075    -0.32400
S2036       S  0.25123055  0.78929932  0.39267610    -0.32400
H2037       H  0.25937758  0.82050011  0.39229242     0.29000
H2038       H  0.17087024  0.73368770  0.46832469     0.29000
H2039       H  0.23829291  0.80971719  0.45641684     0.19600
H2040       H  0.19340774  0.74275774  0.40357231     0.19600
C2041       C  0.46339675  0.58424208  0.41649645    -0.06200
C2042       C  0.45448573  0.56802775  0.40034667    -0.17400
C2043       C  0.43191829  0.53697808  0.40001300     0.10900
C2044       C  0.41759385  0.52225037  0.41615697    -0.06200
C2045       C  0.42499575  0.53922523  0.43204191    -0.17400
C2046       C  0.44770844  0.57007885  0.43237216     0.11000
S2047       S  0.42528599  0.51678309  0.37908568    -0.32400
S2048       S  0.45791029  0.58924917  0.45375608    -0.32400
H2049       H  0.47099786  0.61932362  0.44703174     0.29000
H2050       H  0.42171209  0.99105280  0.38572514     0.29000
H2051       H  0.46729691  0.57869496  0.38827650     0.19600
H2052       H  0.41378608  0.52805527  0.44441565     0.19600
C2053       C  0.44316799  0.60795027  0.65002445    -0.06200
C2054       C  0.46916677  0.61092147  0.65895653    -0.17400
C2055       C  0.47078591  0.61101479  0.67767067     0.10900
C2056       C  0.44597261  0.60833702  0.68787194    -0.06200
C2057       C  0.42029855  0.60598752  0.67900474    -0.17400
C2058       C  0.41852397  0.60563654  0.66033625     0.11000
S2059       S  0.50444980  0.61318386  0.68763468    -0.32400
S2060       S  0.38340567  0.60039029  0.65066322    -0.32400
H2061       H  0.38055717  0.57803938  0.63826349     0.29000
H2062       H  0.48912433  0.59388231  0.70219064     0.29000
H2063       H  0.48822953  0.61264595  0.65128706     0.19600
H2064       H  0.40110323  0.60382548  0.68673813     0.19600
C2065       C  0.44868496  0.70621741  0.57338256    -0.06200
C2066       C  0.42355037  0.70119303  0.56275132    -0.17400
C2067       C  0.41690843  0.72468826  0.55943181     0.10900
C2068       C  0.43524126  0.75385600  0.56735747    -0.06200
C2069       C  0.46148492  0.75927636  0.57710646    -0.17400
C2070       C  0.46830942  0.73584949  0.58025412     0.11000
S2071       S  0.38321015  0.71515375  0.54641961    -0.32400
S2072       S  0.50089135  0.74467367  0.59424273    -0.32400
H2073       H  0.48778440  0.71591667  0.60275198     0.29000
H2074       H  0.39935723  0.73926899  0.53421789     0.29000
H2075       H  0.40850141  0.67847402  0.55730255     0.19600
H2076       H  0.47591947  0.78158376  0.58319795     0.19600
C2077       C  0.40321767  0.98742402  0.58002785    -0.06200
C2078       C  0.40183855  0.97406692  0.59679845    -0.17400
C2079       C  0.39289625  0.94297885  0.59843067     0.10900
C2080       C  0.38418190  0.92428518  0.58309955    -0.06200
C2081       C  0.38313902  0.93677853  0.56656403    -0.17400
C2082       C  0.39315849  0.96812972  0.56474059     0.11000
S2083       S  0.39608582  0.92921219  0.62011980    -0.32400
S2084       S  0.39600301  0.98220782  0.54228478    -0.32400
H2085       H  0.42593415  0.50457661  0.54477128     0.29000
H2086       H  0.37514289  0.89799098  0.61680191     0.29000
H2087       H  0.40901523  0.98817085  0.60872741     0.19600
H2088       H  0.37762851  0.92269309  0.55465016     0.19600
C2089       C  0.32825345  0.56183023  0.57460316    -0.06200
C2090       C  0.31278695  0.55383434  0.59113286    -0.17400
C2091       C  0.28213609  0.54634861  0.59264834     0.10900
C2092       C  0.26602296  0.54658968  0.57734572    -0.06200
C2093       C  0.28032575  0.55194088  0.56059301    -0.17400
C2094       C  0.31129134  0.55988184  0.55905460     0.11000
S2095       S  0.26512328  0.53786829  0.61461350    -0.32400
S2096       S  0.32831104  0.57011057  0.53719491    -0.32400
H2097       H  0.35341233  0.59819817  0.54286737     0.29000
H2098       H  0.23464474  0.51929363  0.60879045     0.29000
H2099       H  0.32494862  0.55429995  0.60318524     0.19600
H2100       H  0.26807582  0.55240779  0.54879380     0.19600
C2101       C  0.05295827  0.62177010  0.58457599    -0.06200
C2102       C  0.06782415  0.61999093  0.59995645    -0.17400
C2103       C  0.09115530  0.61257305  0.59885178     0.10900
C2104       C  0.09895218  0.60539711  0.58202924    -0.06200
C2105       C  0.08571547  0.60962538  0.56656815    -0.17400
C2106       C  0.06262537  0.61734140  0.56768243     0.11000
S2107       S  0.10996018  0.61268055  0.61938552    -0.32400
S2108       S  0.04431309  0.61822561  0.54716626    -0.32400
H2109       H  0.51395232  0.59987720  0.55315290     0.29000
H2110       H  0.13896490  0.62328279  0.61153981     0.29000
H2111       H  0.06052513  0.62342475  0.61294022     0.19600
H2112       H  0.09169055  0.60465784  0.55358500     0.19600
C2113       C  0.48634125  0.62252793  0.51627420    -0.06200
C2114       C  0.50537406  0.65378884  0.51199778    -0.17400
C2115       C  0.02397843  0.66431893  0.49723800     0.10900
C2116       C  0.02824799  0.64282454  0.48714813    -0.06200
C2117       C  0.01128761  0.61155568  0.49224496    -0.17400
C2118       C  0.48842597  0.60047478  0.50554890     0.11000
S2119       S  0.04440006  0.70510582  0.49307056    -0.32400
S2120       S  0.46666214  0.55993059  0.51019807    -0.32400
H2121       H  0.43828929  0.55905546  0.50994919     0.29000
H2122       H  0.07339605  0.70755187  0.49486934     0.29000
H2123       H  0.50463492  0.67118311  0.52021696     0.19600
H2124       H  0.01397535  0.59449031  0.48487253     0.19600
Zn2125     Zn  0.95720545  0.08242282  0.59677239     1.49700
Zn2126     Zn  0.98043441  0.14022310  0.57209027     1.49400
Zn2127     Zn  0.91941221  0.07663745  0.56101919     1.49100
Zn2128     Zn  0.92026410  0.11580366  0.59443186     1.49500
O2129       O  0.94431679  0.10351681  0.58072533    -1.84300
O2130       O  0.00078645  0.09562660  0.59170026    -0.74900
O2131       O  0.98392185  0.13480834  0.54630119    -0.74700
O2132       O  0.91005226  0.03326121  0.56634254    -0.74200
O2133       O  0.52062873  0.14383529  0.58082067    -0.74900
O2134       O  0.93227756  0.03711881  0.59256194    -0.74500
O2135       O  0.94369885  0.09139040  0.53690611    -0.75100
O2136       O  0.87601502  0.08733698  0.58934512    -0.74500
O2137       O  0.97554847  0.17825101  0.57382278    -0.75200
O2138       O  0.87616874  0.07197745  0.56147614    -0.74600
O2139       O  0.92866609  0.15676169  0.58561751    -0.75100
O2140       O  0.92839622  0.11694153  0.62118215    -0.75000
O2141       O  0.95388439  0.09158416  0.62260351    -0.74800
C2142       C  0.52374409  0.12136833  0.58614014     0.77000
C2143       C  0.96975665  0.11550307  0.53395011     0.77500
C2144       C  0.91549563  0.02089011  0.57964032     0.76500
C2145       C  0.86179749  0.07413979  0.57502902     0.76800
C2146       C  0.95144455  0.17924250  0.57803402     0.78000
C2147       C  0.94169499  0.10548013  0.63026361     0.77000
Zn2148     Zn  0.55382990  0.13019215  0.43276391     1.49700
Zn2149     Zn  0.58690544  0.19925049  0.44185657     1.49400
Zn2150     Zn  0.60348220  0.17663830  0.40655684     1.49100
Zn2151     Zn  0.53976361  0.17382172  0.40935856     1.49500
O2152       O  0.57101787  0.17022842  0.42252522    -1.84300
O2153       O  0.54206892  0.12936701  0.45861666    -0.74900
O2154       O  0.63370600  0.22056665  0.44217136    -0.74700
O2155       O  0.61270389  0.14246910  0.40774340    -0.74200
O2156       O  0.56416714  0.17887657  0.46502926    -0.74900
O2157       O  0.58077032  0.11174858  0.42865087    -0.74500
O2158       O  0.64182223  0.21387894  0.41380528    -0.75100
O2159       O  0.54550904  0.17133684  0.38285810    -0.74500
O2160       O  0.57811401  0.23300355  0.43652570    -0.75200
O2161       O  0.59286909  0.17884329  0.38114374    -0.74600
O2162       O  0.54364350  0.21534808  0.41454970    -0.75100
O2163       O  0.99935511  0.13744794  0.41539809    -0.75000
O2164       O  0.01538459  0.10429867  0.42173949    -0.74800
C2165       C  0.54630623  0.15082239  0.46934677     0.77000
C2166       C  0.65177774  0.22705872  0.42882642     0.77500
C2167       C  0.60235973  0.11866877  0.41746526     0.76500
C2168       C  0.56822511  0.17440277  0.37375369     0.76800
C2169       C  0.56109221  0.23663068  0.42539395     0.78000
C2170       C  0.99429939  0.11016379  0.41773218     0.77000
Zn2171     Zn  0.57950058  0.40998959  0.40219940     1.49700
Zn2172     Zn  0.58638870  0.46116872  0.42851792     1.49400
Zn2173     Zn  0.62027322  0.42619541  0.43743475     1.49100
Zn2174     Zn  0.64265737  0.47322706  0.40407580     1.49500
O2175       O  0.60765796  0.44256719  0.41783094    -1.84300
O2176       O  0.53637821  0.40208132  0.40474225    -0.74900
O2177       O  0.59938618  0.47376997  0.45400606    -0.74700
O2178       O  0.59588725  0.37924274  0.43701074    -0.74200
O2179       O  0.54060242  0.43442895  0.42629565    -0.74900
O2180       O  0.57741885  0.37067693  0.40929060    -0.74500
O2181       O  0.62213050  0.44734184  0.46129049    -0.75100
O2182       O  0.68072345  0.47101545  0.41088066    -0.74500
O2183       O  0.59894224  0.00011622  0.41827635    -0.75200
O2184       O  0.66331307  0.43680973  0.43300952    -0.74600
O2185       O  0.64696218  0.01505497  0.40980949    -0.75100
O2186       O  0.63497150  0.46509771  0.37732694    -0.75000
O2187       O  0.59154891  0.42021115  0.37638741    -0.74800
C2188       C  0.52434110  0.41252556  0.41555731     0.77000
C2189       C  0.61406705  0.46705324  0.46522114     0.77500
C2190       C  0.58247801  0.36097642  0.42390891     0.76500
C2191       C  0.68456399  0.45449637  0.42240938     0.76800
C2192       C  0.62569165  0.02089574  0.41366184     0.78000
C2193       C  0.61359530  0.44305060  0.36847945     0.77000
Zn2194     Zn  0.70795545  0.08371498  0.59333405     1.49700
Zn2195     Zn  0.63701542  0.04723773  0.59536935     1.49400
Zn2196     Zn  0.66802162  0.08550055  0.56022456     1.49100
Zn2197     Zn  0.67087296  0.02417057  0.56962055     1.49500
O2198       O  0.67120871  0.06035287  0.57930698    -1.84300
O2199       O  0.69980099  0.07781147  0.62000123    -0.74900
O2200       O  0.61770993  0.07353381  0.59271498    -0.74700
O2201       O  0.70645319  0.12856678  0.56062922    -0.74200
O2202       O  0.64909713  0.04888973  0.62084730    -0.74900
O2203       O  0.72638597  0.12825868  0.58716334    -0.74500
O2204       O  0.63446831  0.09543932  0.56624608    -0.75100
O2205       O  0.66317489  0.02189747  0.54356509    -0.74500
O2206       O  0.60621062  0.00376571  0.59042330    -0.75200
O2207       O  0.65837399  0.06208437  0.53588487    -0.74600
O2208       O  0.63371857  0.48450727  0.57740431    -0.75100
O2209       O  0.71219583  0.02635767  0.57248053    -0.75000
O2210       O  0.73857430  0.07054085  0.58730197    -0.74800
C2211       C  0.67490237  0.06263066  0.62871014     0.77000
C2212       C  0.61829759  0.09097974  0.58023352     0.77500
C2213       C  0.72489168  0.14269111  0.57357336     0.76500
C2214       C  0.65770072  0.03689596  0.53193902     0.76800
C2215       C  0.60867662  0.48109448  0.58379765     0.78000
C2216       C  0.73714312  0.04747096  0.57929954     0.77000
Zn2217     Zn  0.83659497  0.37024971  0.40895026     1.49700
Zn2218     Zn  0.88108565  0.42778728  0.43209385     1.49400
Zn2219     Zn  0.83760442  0.43372605  0.40554679     1.49100
Zn2220     Zn  0.81220149  0.39545280  0.44118858     1.49500
O2221       O  0.84125174  0.40616547  0.42174720    -1.84300
O2222       O  0.87495396  0.36647699  0.41222274    -0.74900
O2223       O  0.90001172  0.47302218  0.42924882    -0.74700
O2224       O  0.83074333  0.41844191  0.38056374    -0.74200
O2225       O  0.90780464  0.41460867  0.42070412    -0.74900
O2226       O  0.83194728  0.37489491  0.38228796    -0.74500
O2227       O  0.87387345  0.47596711  0.40617527    -0.75100
O2228       O  0.79111502  0.42144580  0.44057073    -0.74500
O2229       O  0.88059423  0.41617731  0.45753879    -0.75200
O2230       O  0.80297309  0.43888705  0.41279212    -0.74600
O2231       O  0.83134626  0.39317400  0.46495798    -0.75100
O2232       O  0.77867873  0.35285635  0.43660618    -0.75000
O2233       O  0.79708100  0.33263263  0.41712597    -0.74800
C2234       C  0.90218345  0.38821366  0.41553167     0.77000
C2235       C  0.89573348  0.48851606  0.41733260     0.77500
C2236       C  0.82934498  0.39496907  0.37323105     0.76500
C2237       C  0.78768189  0.43492143  0.42700847     0.76800
C2238       C  0.85922669  0.40155746  0.46874676     0.78000
C2239       C  0.77562020  0.33032112  0.42727921     0.77000
Zn2240     Zn  0.92822491  0.32800381  0.59122311     1.49700
Zn2241     Zn  0.86618785  0.33055565  0.58902148     1.49400
Zn2242     Zn  0.92427407  0.37376531  0.56593687     1.49100
Zn2243     Zn  0.88696490  0.30469703  0.55588055     1.49500
O2244       O  0.90084109  0.33339075  0.57570181    -1.84300
O2245       O  0.91557508  0.32541453  0.61686160    -0.74900
O2246       O  0.86379057  0.36959708  0.58435950    -0.74700
O2247       O  0.96988276  0.39130860  0.56760116    -0.74200
O2248       O  0.87395671  0.33008516  0.61570930    -0.74900
O2249       O  0.97184192  0.36264398  0.58946888    -0.74500
O2250       O  0.91352753  0.40125078  0.57874732    -0.75100
O2251       O  0.88491440  0.32627656  0.53278784    -0.74500
O2252       O  0.82698711  0.28985932  0.58269483    -0.75200
O2253       O  0.91126224  0.37513034  0.54104492    -0.74600
O2254       O  0.84354082  0.27177808  0.56081624    -0.75100
O2255       O  0.91198144  0.28236152  0.55547205    -0.75000
O2256       O  0.92984492  0.29105177  0.58340754    -0.74800
C2257       C  0.89421048  0.32758409  0.62462715     0.77000
C2258       C  0.88686643  0.39662201  0.58230428     0.77500
C2259       C  0.98512302  0.38510183  0.57871936     0.76500
C2260       C  0.89466916  0.35473505  0.52966974     0.76800
C2261       C  0.82245422  0.26877685  0.57143785     0.78000
C2262       C  0.92514291  0.27703049  0.56853451     0.77000
Zn2263     Zn  0.53450816  0.24733336  0.07275718     1.49700
Zn2264     Zn  0.96515515  0.21706926  0.07311588     1.49400
Zn2265     Zn  0.49708338  0.19031113  0.09746645     1.49100
Zn2266     Zn  0.50133369  0.25508583  0.10720105     1.49500
O2267       O  0.49908112  0.22732943  0.08787453    -1.84300
O2268       O  0.52497170  0.23854432  0.04664864    -0.74900
O2269       O  0.93273480  0.17439272  0.07827563    -0.74700
O2270       O  0.53432141  0.18662557  0.09035254    -0.74200
O2271       O  0.97537353  0.22040452  0.04665891    -0.74900
O2272       O  0.56382539  0.23372110  0.07934831    -0.74500
O2273       O  0.95384985  0.15220683  0.09401944    -0.75100
O2274       O  0.50942516  0.24017829  0.13158427    -0.74500
O2275       O  0.94685944  0.24296195  0.07900535    -0.75200
O2276       O  0.50254516  0.19443844  0.12365275    -0.74600
O2277       O  0.96196042  0.25893897  0.10680533    -0.75100
O2278       O  0.53589218  0.29844053  0.10169289    -0.75000
O2279       O  0.55490673  0.29252439  0.07620389    -0.74800
C2280       C  0.00055371  0.22832404  0.03860850     0.77000
C2281       C  0.93072911  0.15107024  0.08615508     0.77500
C2282       C  0.56041419  0.20857907  0.08536884     0.76500
C2283       C  0.50846821  0.21483756  0.13542937     0.76800
C2284       C  0.94516013  0.25588144  0.09325181     0.78000
C2285       C  0.55404130  0.30969809  0.08840916     0.77000
Zn2286     Zn  0.58164278  0.20536960  0.26253643     1.49700
Zn2287     Zn  0.55046027  0.13524501  0.26212759     1.49400
Zn2288     Zn  0.52236663  0.16826169  0.23958943     1.49100
Zn2289     Zn  0.58625711  0.17257055  0.22750363     1.49500
O2290       O  0.56016000  0.17022512  0.24755415    -1.84300
O2291       O  0.57534518  0.19509495  0.28837728    -0.74900
O2292       O  0.50810336  0.10248847  0.25628812    -0.74700
O2293       O  0.51862151  0.20445418  0.24911505    -0.74200
O2294       O  0.55401011  0.14435146  0.28864452    -0.74900
O2295       O  0.56727788  0.23449407  0.25750110    -0.74500
O2296       O  0.98558661  0.12601418  0.24405999    -0.75100
O2297       O  0.56986367  0.18164112  0.20408103    -0.74500
O2298       O  0.57748880  0.11831616  0.25541841    -0.75200
O2299       O  0.52584853  0.17697554  0.21366552    -0.74600
O2300       O  0.59050710  0.13384210  0.22729824    -0.75100
O2301       O  0.63011646  0.20665249  0.23215556    -0.75000
O2302       O  0.62635188  0.22586143  0.25810288    -0.74800
C2303       C  0.56493472  0.16994448  0.29683081     0.77000
C2304       C  0.98474512  0.10175564  0.24994923     0.77500
C2305       C  0.54122913  0.23084354  0.25322019     0.76500
C2306       C  0.54528029  0.18275353  0.20133447     0.76800
C2307       C  0.58966680  0.11752283  0.24067101     0.78000
C2308       C  0.64245947  0.22473224  0.24538685     0.77000
Zn2309     Zn  0.82791861  0.36012511  0.23810989     1.49700
Zn2310     Zn  0.79241127  0.38343167  0.26199658     1.49400
Zn2311     Zn  0.86236842  0.41919219  0.26176689     1.49100
Zn2312     Zn  0.82642347  0.42106511  0.22703277     1.49500
O2313       O  0.82731035  0.39615599  0.24687386    -1.84300
O2314       O  0.79301201  0.32100101  0.24850607    -0.74900
O2315       O  0.80229794  0.38548417  0.28799128    -0.74700
O2316       O  0.89411743  0.40846270  0.25571059    -0.74200
O2317       O  0.76298607  0.33995698  0.25653817    -0.74900
O2318       O  0.87093028  0.36565968  0.23947687    -0.74500
O2319       O  0.85318124  0.41145716  0.28822526    -0.75100
O2320       O  0.86729285  0.46232578  0.22710258    -0.74500
O2321       O  0.77324584  0.40927050  0.25780442    -0.75200
O2322       O  0.88156910  0.46334708  0.25553514    -0.74600
O2323       O  0.79447543  0.43351887  0.23245696    -0.75100
O2324       O  0.81460982  0.39518832  0.20326543    -0.75000
O2325       O  0.81592124  0.35402769  0.21269970    -0.74800
C2326       C  0.76677582  0.31748485  0.25249538     0.77000
C2327       C  0.82760493  0.39715924  0.29639033     0.77500
C2328       C  0.89492044  0.38733632  0.24683076     0.76500
C2329       C  0.88446541  0.47643230  0.24052678     0.76800
C2330       C  0.77613174  0.42797882  0.24552242     0.78000
C2331       C  0.81061536  0.36819180  0.20046610     0.77000
Zn2332     Zn  0.74165680  0.24445191  0.10777546     1.49700
Zn2333     Zn  0.74550318  0.28006850  0.07152605     1.49400
Zn2334     Zn  0.80379103  0.30601014  0.09663145     1.49100
Zn2335     Zn  0.78146497  0.24553044  0.07386888     1.49500
O2336       O  0.76799316  0.26890641  0.08774463    -1.84300
O2337       O  0.69826134  0.23534498  0.10321462    -0.74900
O2338       O  0.75994062  0.32451048  0.07451289    -0.74700
O2339       O  0.79710719  0.31186127  0.12202889    -0.74200
O2340       O  0.70046385  0.25598173  0.07661915    -0.74900
O2341       O  0.75594336  0.26968361  0.13166955    -0.74500
O2342       O  0.80710039  0.34465050  0.08585815    -0.75100
O2343       O  0.82481672  0.25852402  0.08028071    -0.74500
O2344       O  0.75227106  0.27400161  0.04579486    -0.75200
O2345       O  0.84250396  0.30255866  0.09527054    -0.74600
O2346       O  0.77962197  0.25071477  0.04706607    -0.75100
O2347       O  0.75538636  0.20119481  0.08017291    -0.75000
O2348       O  0.73659814  0.20087694  0.10719253    -0.74800
C2349       C  0.68524330  0.24021390  0.09004494     0.77000
C2350       C  0.78523398  0.34758260  0.07938442     0.77500
C2351       C  0.77799805  0.29721763  0.13434987     0.76500
C2352       C  0.84626827  0.28132005  0.08854207     0.76800
C2353       C  0.76651196  0.26232516  0.03801782     0.78000
C2354       C  0.74052068  0.18677577  0.09405416     0.77000
Zn2355     Zn  0.74091287  0.02456806  0.10473215     1.49700
Zn2356     Zn  0.75572068  0.99994273  0.06906719     1.49400
Zn2357     Zn  0.70986745  0.45684150  0.09534082     1.49100
Zn2358     Zn  0.69209597  0.99844132  0.07239501     1.49500
O2359       O  0.72442483  0.99561361  0.08517219    -1.84300
O2360       O  0.78835388  0.04682445  0.10420966    -0.74900
O2361       O  0.76519533  0.46476672  0.07031322    -0.74700
O2362       O  0.69407918  0.45703946  0.11985499    -0.74200
O2363       O  0.79416904  0.03733018  0.07576701    -0.74900
O2364       O  0.71762370  0.00453448  0.12812713    -0.74500
O2365       O  0.73926333  0.44017760  0.09458158    -0.75100
O2366       O  0.65311972  0.46001610  0.07786207    -0.74500
O2367       O  0.74449439  0.00192432  0.04368681    -0.75200
O2368       O  0.67205255  0.42868331  0.08228739    -0.74600
O2369       O  0.69904152  0.99898659  0.04529301    -0.75100
O2370       O  0.69347546  0.03899135  0.07946565    -0.75000
O2371       O  0.73051460  0.05730569  0.09998117    -0.74800
C2372       C  0.80513250  0.05194070  0.09030344     0.77000
C2373       C  0.75849127  0.44444559  0.08226559     0.77500
C2374       C  0.69941244  0.47828310  0.13099358     0.76500
C2375       C  0.64952493  0.43309520  0.07994020     0.76800
C2376       C  0.72121667  0.00062898  0.03611367     0.78000
C2377       C  0.71150532  0.06032548  0.09020556     0.77000
Zn2378     Zn  0.63386727  0.47423917  0.25481617     1.49700
Zn2379     Zn  0.57036986  0.41234786  0.25826963     1.49400
Zn2380     Zn  0.58340460  0.45176464  0.22285314     1.49100
Zn2381     Zn  0.61686056  0.41494225  0.23027952     1.49500
O2382       O  0.60142226  0.43893486  0.24165947    -1.84300
O2383       O  0.62717195  0.46825915  0.28186514    -0.74900
O2384       O  0.53147642  0.41112785  0.25262659    -0.74700
O2385       O  0.59470997  0.99510174  0.22835950    -0.74200
O2386       O  0.58248199  0.42502355  0.28362462    -0.74900
O2387       O  0.63157092  0.01356412  0.24895534    -0.74500
O2388       O  0.53590315  0.42774880  0.22464358    -0.75100
O2389       O  0.62513157  0.42500659  0.20432012    -0.74500
O2390       O  0.56104583  0.36900017  0.25658627    -0.75200
O2391       O  0.60331237  0.45298285  0.19838615    -0.74600
O2392       O  0.59043711  0.36903409  0.23452078    -0.75100
O2393       O  0.65854107  0.42909720  0.23952711    -0.75000
O2394       O  0.67503080  0.47644300  0.25017571    -0.74800
C2395       C  0.60549650  0.44736350  0.29113779     0.77000
C2396       C  0.51973848  0.41550978  0.23867575     0.77500
C2397       C  0.61400347  0.01716891  0.23804833     0.76500
C2398       C  0.62005484  0.44164727  0.19367535     0.76800
C2399       C  0.57008129  0.35490622  0.24643951     0.78000
C2400       C  0.67985034  0.45483909  0.24525297     0.77000
Zn2401     Zn  0.92047619  0.36421980  0.73720291     1.49700
Zn2402     Zn  0.88040913  0.29409718  0.73551103     1.49400
Zn2403     Zn  0.91834095  0.32640392  0.77107001     1.49100
Zn2404     Zn  0.85903899  0.33082658  0.75970240     1.49500
O2405       O  0.89441273  0.32874849  0.75120820    -1.84300
O2406       O  0.91432855  0.35633333  0.71051756    -0.74900
O2407       O  0.90597976  0.27418451  0.73909501    -0.74700
O2408       O  0.96110547  0.36570774  0.77188517    -0.74200
O2409       O  0.88297912  0.30580978  0.70977467    -0.74900
O2410       O  0.96443526  0.38027395  0.74353036    -0.74500
O2411       O  0.92887744  0.29359787  0.76512583    -0.75100
O2412       O  0.85437462  0.32230798  0.78562131    -0.74500
O2413       O  0.83649772  0.26478162  0.74036516    -0.75200
O2414       O  0.89300102  0.31603166  0.79472360    -0.74600
O2415       O  0.81896482  0.29510409  0.75020479    -0.75100
O2416       O  0.86583164  0.37428060  0.75715828    -0.75000
O2417       O  0.91153802  0.39726986  0.74388495    -0.74800
C2418       C  0.89814724  0.33146979  0.70185585     0.77000
C2419       C  0.92403216  0.27623931  0.75162200     0.77500
C2420       C  0.97690256  0.38212743  0.75862630     0.76500
C2421       C  0.86794336  0.31607611  0.79778808     0.76800
C2422       C  0.81452521  0.26893174  0.74502326     0.78000
C2423       C  0.88940665  0.39844562  0.75130885     0.77000
Zn2424     Zn  0.78629842  0.25010056  0.92572363     1.49700
Zn2425     Zn  0.74839777  0.24664138  0.89078277     1.49400
Zn2426     Zn  0.74927787  0.28379332  0.92576932     1.49100
Zn2427     Zn  0.80906433  0.30886095  0.90189438     1.49500
O2428       O  0.77312541  0.27244027  0.91081305    -1.84300
O2429       O  0.76022079  0.20524160  0.92123346    -0.74900
O2430       O  0.70619246  0.24363765  0.89088556    -0.74700
O2431       O  0.75487559  0.27871435  0.95221409    -0.74200
O2432       O  0.73673604  0.20269305  0.89561681    -0.74900
O2433       O  0.78346938  0.25667334  0.95186348    -0.74500
O2434       O  0.70484982  0.25750507  0.91905141    -0.75100
O2435       O  0.80515549  0.34675599  0.90525473    -0.74500
O2436       O  0.77313028  0.26050957  0.86696618    -0.75200
O2437       O  0.76200583  0.32814518  0.92113075    -0.74600
O2438       O  0.81338466  0.30447169  0.87591031    -0.75100
O2439       O  0.84832947  0.31221680  0.91131679    -0.75000
O2440       O  0.83001581  0.26402532  0.92075904    -0.74800
C2441       C  0.74179914  0.18975536  0.90874456     0.77000
C2442       C  0.69132582  0.24483710  0.90445958     0.77500
C2443       C  0.76971711  0.26805269  0.96043894     0.76500
C2444       C  0.78436531  0.35013543  0.91286698     0.76800
C2445       C  0.79913661  0.28453608  0.86385699     0.78000
C2446       C  0.85226375  0.29017736  0.91633795     0.77000
Zn2447     Zn  0.70759554  0.08594830  0.76334175     1.49700
Zn2448     Zn  0.66082150  0.08835087  0.73799776     1.49400
Zn2449     Zn  0.66450182  0.02652563  0.74149342     1.49100
Zn2450     Zn  0.63896928  0.04878347  0.77340429     1.49500
O2451       O  0.66724394  0.06195781  0.75379442    -1.84300
O2452       O  0.72434348  0.13155136  0.76129478    -0.74900
O2453       O  0.66027622  0.07530201  0.71261147    -0.74700
O2454       O  0.70337868  0.02455056  0.74703553    -0.74200
O2455       O  0.69484449  0.13238873  0.73954877    -0.74900
O2456       O  0.73509087  0.07496554  0.75056713    -0.74500
O2457       O  0.66539929  0.03388040  0.71476066    -0.75100
O2458       O  0.60529171  0.00564648  0.76858752    -0.74500
O2459       O  0.62330386  0.08974944  0.74558196    -0.75200
O2460       O  0.62296471  0.48718326  0.74764237    -0.74600
O2461       O  0.61865728  0.07515867  0.77402085    -0.75100
O2462       O  0.66015561  0.04700479  0.79643824    -0.75000
O2463       O  0.70899956  0.07361440  0.78846482    -0.74800
C2464       C  0.71746904  0.14625275  0.75013938     0.77000
C2465       C  0.66370940  0.05420184  0.70541685     0.77500
C2466       C  0.73041603  0.04787482  0.74832273     0.76500
C2467       C  0.60162833  0.48372851  0.75835037     0.76800
C2468       C  0.61159932  0.08705251  0.76106858     0.78000
C2469       C  0.68851112  0.05712548  0.79980277     0.77000
Zn2470     Zn  0.70145757  0.00458844  0.92183475     1.49700
Zn2471     Zn  0.76405177  0.00486201  0.92670717     1.49400
Zn2472     Zn  0.72673055  0.47813555  0.89016538     1.49100
Zn2473     Zn  0.76074486  0.04748944  0.89838665     1.49500
O2474       O  0.73747744  0.00818361  0.90963811    -1.84300
O2475       O  0.70530139  0.50272567  0.94831153    -0.74900
O2476       O  0.76862802  0.46924096  0.92038985    -0.74700
O2477       O  0.68326550  0.44545239  0.89399574    -0.74200
O2478       O  0.74871192  0.50185708  0.95104067    -0.74900
O2479       O  0.66398217  0.46505580  0.91334027    -0.74500
O2480       O  0.75189777  0.45628435  0.89247464    -0.75100
O2481       O  0.75042165  0.04551945  0.87258228    -0.74500
O2482       O  0.80655803  0.04083715  0.92638111    -0.75200
O2483       O  0.72582794  0.49627057  0.86576945    -0.74600
O2484       O  0.80632684  0.06698338  0.90253682    -0.75100
O2485       O  0.74602596  0.07466497  0.90728430    -0.75000
O2486       O  0.69797661  0.04238401  0.91620575    -0.74800
C2487       C  0.72527448  0.50102467  0.95800245     0.77000
C2488       C  0.76484067  0.45322807  0.90643644     0.77500
C2489       C  0.66091639  0.44339019  0.90302446     0.76500
C2490       C  0.73422076  0.02349564  0.86200659     0.76800
C2491       C  0.82047070  0.06244527  0.91521312     0.78000
C2492       C  0.71925035  0.06907267  0.91151882     0.77000
Zn2493     Zn  0.53251893  0.25277954  0.89160727     1.49700
Zn2494     Zn  0.50808630  0.20532173  0.92480335     1.49400
Zn2495     Zn  0.50833447  0.26883591  0.92726533     1.49100
Zn2496     Zn  0.96401596  0.21883936  0.90237024     1.49500
O2497       O  0.50412812  0.23667165  0.91149263    -1.84300
O2498       O  0.56436070  0.24098524  0.89574748    -0.74900
O2499       O  0.50887381  0.21356518  0.95164211    -0.74700
O2500       O  0.54537165  0.30773905  0.92020306    -0.74200
O2501       O  0.54766849  0.20571028  0.91718418    -0.74900
O2502       O  0.55592811  0.30030568  0.89242910    -0.74500
O2503       O  0.50914688  0.25792776  0.95301567    -0.75100
O2504       O  0.94637250  0.24675577  0.90315429    -0.74500
O2505       O  0.96934016  0.16394035  0.92112724    -0.75200
O2506       O  0.97342985  0.27745181  0.92546225    -0.74600
O2507       O  0.93714040  0.18151678  0.91603284    -0.75100
O2508       O  0.96309785  0.20400284  0.87755144    -0.75000
O2509       O  0.51154375  0.23078264  0.86781212    -0.74800
C2510       C  0.56776603  0.22216499  0.90546587     0.77000
C2511       C  0.50813994  0.23479884  0.96064724     0.77500
C2512       C  0.56071500  0.31804179  0.90587662     0.76500
C2513       C  0.95173188  0.26815089  0.91417119     0.76800
C2514       C  0.94220918  0.15978989  0.91970856     0.78000
C2515       C  0.98346362  0.21061125  0.86566878     0.77000
Zn2516     Zn  0.94824647  0.08661763  0.77645772     1.49700
Zn2517     Zn  0.97256319  0.13554494  0.74391599     1.49400
Zn2518     Zn  0.90937163  0.07286826  0.74054868     1.49100
Zn2519     Zn  0.91406146  0.12125497  0.76714063     1.49500
O2520       O  0.93670036  0.10400962  0.75680726    -1.84300
O2521       O  0.48960546  0.09521478  0.77135460    -0.74900
O2522       O  0.96696520  0.12786248  0.71691658    -0.74700
O2523       O  0.90890175  0.03448236  0.74678848    -0.74200
O2524       O  0.50979590  0.13256389  0.75126699    -0.74900
O2525       O  0.92366375  0.03893365  0.77527414    -0.74500
O2526       O  0.92197717  0.08454897  0.71505607    -0.75100
O2527       O  0.86819222  0.09396805  0.76489800    -0.74500
O2528       O  0.97546777  0.17717584  0.74824443    -0.75200
O2529       O  0.86591972  0.06361207  0.74270894    -0.74600
O2530       O  0.92634969  0.16037905  0.75511534    -0.75100
O2531       O  0.92748721  0.13478533  0.79222690    -0.75000
O2532       O  0.95135479  0.10962027  0.80016367    -0.74800
C2533       C  0.51223233  0.11390761  0.76183707     0.77000
C2534       C  0.94523778  0.10685266  0.70768535     0.77500
C2535       C  0.91286076  0.02293215  0.76097652     0.76500
C2536       C  0.85283513  0.07284701  0.75354503     0.76800
C2537       C  0.95310810  0.18189143  0.75113373     0.78000
C2538       C  0.94343409  0.12972767  0.80341265     0.77000
C2539       C  0.97409924  0.19224597  0.84876613    -0.06200
C2540       C  0.49343515  0.18304936  0.84017074    -0.17400
C2541       C  0.98431720  0.16232008  0.82666017     0.10900
C2542       C  0.95409807  0.14951592  0.81977829    -0.06200
C2543       C  0.93481462  0.15946476  0.82713383    -0.17400
C2544       C  0.94445510  0.18074228  0.84129601     0.11000
S2545       S  0.51204998  0.15470699  0.81585753    -0.32400
S2546       S  0.91911151  0.19411356  0.84909109    -0.32400
H2547       H  0.89502929  0.17740621  0.83695481     0.29000
H2548       H  0.50438567  0.15755815  0.79815938     0.29000
H2549       H  0.51640454  0.19197958  0.84545472     0.19600
H2550       H  0.91212257  0.15080475  0.82152658     0.19600
C2551       C  0.58455952  0.35136116  0.90506974    -0.06200
C2552       C  0.59724086  0.36471051  0.88843979    -0.17400
C2553       C  0.62047138  0.39559992  0.88706709     0.10900
C2554       C  0.63163946  0.41385845  0.90264843    -0.06200
C2555       C  0.61774425  0.40131844  0.91902712    -0.17400
C2556       C  0.59504746  0.37044872  0.92055016     0.11000
S2557       S  0.63476882  0.41045978  0.86506338    -0.32400
S2558       S  0.58292413  0.35697170  0.94302567    -0.32400
H2559       H  0.59004945  0.33329411  0.94153741     0.29000
H2560       H  0.64307571  0.44104742  0.86904096     0.29000
H2561       H  0.58919509  0.35099346  0.87637415     0.19600
H2562       H  0.62642603  0.41503671  0.93107467     0.19600
C2563       C  0.85362762  0.08299622  0.91735443    -0.06200
C2564       C  0.86442612  0.09839068  0.93369525    -0.17400
C2565       C  0.89498722  0.12164950  0.93564616     0.10900
C2566       C  0.91521806  0.12922311  0.92107198    -0.06200
C2567       C  0.90502991  0.11208760  0.90525103    -0.17400
C2568       C  0.87442651  0.08899213  0.90323768     0.11000
S2569       S  0.90617977  0.14283339  0.95638529    -0.32400
S2570       S  0.86306313  0.06893940  0.88215753    -0.32400
H2571       H  0.83952685  0.04106686  0.88914880     0.29000
H2572       H  0.93783675  0.15387453  0.95461769     0.29000
H2573       H  0.84855435  0.09356965  0.94464257     0.19600
H2574       H  0.92042883  0.11829641  0.89392168     0.19600
C2575       C  0.58904587  0.09774800  0.76356994    -0.06200
C2576       C  0.58933702  0.11922390  0.75136393    -0.17400
C2577       C  0.56578447  0.12644296  0.75091044     0.10900
C2578       C  0.54092625  0.11199057  0.76301171    -0.06200
C2579       C  0.54213389  0.09248439  0.77614303    -0.17400
C2580       C  0.56568048  0.08540337  0.77664212     0.11000
S2581       S  0.56850468  0.15323108  0.73407793    -0.32400
S2582       S  0.56297788  0.05867534  0.79354570    -0.32400
H2583       H  0.59156198  0.07966188  0.80111773     0.29000
H2584       H  0.03939622  0.12818623  0.72518808     0.29000
H2585       H  0.60756309  0.12973949  0.74156587     0.19600
H2586       H  0.52397931  0.08168629  0.78595541     0.19600
C2587       C  0.81932221  0.05967858  0.75228906    -0.06200
C2588       C  0.80627416  0.05676409  0.73528444    -0.17400
C2589       C  0.77569971  0.04951182  0.73334441     0.10900
C2590       C  0.75761347  0.04445102  0.74870195    -0.06200
C2591       C  0.76995860  0.04508685  0.76558631    -0.17400
C2592       C  0.80052551  0.05253161  0.76755866     0.11000
S2593       S  0.76205217  0.05014214  0.71115434    -0.32400
S2594       S  0.81437413  0.05359003  0.78991026    -0.32400
H2595       H  0.83551565  0.04429930  0.78504218     0.29000
H2596       H  0.73066222  0.03124266  0.71493459     0.29000
H2597       H  0.82051169  0.06212238  0.72347595     0.19600
H2598       H  0.75622882  0.04171878  0.77743485     0.19600
C2599       C  0.69874898  0.04868452  0.81654104    -0.06200
C2600       C  0.72966869  0.06711455  0.82173108    -0.17400
C2601       C  0.74246045  0.05852493  0.83561917     0.10900
C2602       C  0.72411319  0.03076357  0.84495763    -0.06200
C2603       C  0.69329010  0.01217553  0.83978820    -0.17400
C2604       C  0.68036738  0.02090496  0.82597037     0.11000
S2605       S  0.78262922  0.08377554  0.84041093    -0.32400
S2606       S  0.64264079  0.49395583  0.81893864    -0.32400
H2607       H  0.63224163  0.01766828  0.82398395     0.29000
H2608       H  0.78837991  0.06017323  0.84550415     0.29000
H2609       H  0.74437752  0.08829760  0.81465711     0.19600
H2610       H  0.68053743  0.49092596  0.84563222     0.19600
C2611       C  0.88296481  0.29382264  0.91633946    -0.06200
C2612       C  0.89585146  0.29355683  0.89980283    -0.17400
C2613       C  0.92000534  0.28741566  0.89871632     0.10900
C2614       C  0.93133564  0.28125574  0.91450758    -0.06200
C2615       C  0.92021322  0.28430530  0.93112088    -0.17400
C2616       C  0.89603367  0.29036963  0.93217943     0.11000
S2617       S  0.93460818  0.28668694  0.87683512    -0.32400
S2618       S  0.88129938  0.29123352  0.95400326    -0.32400
H2619       H  0.86862696  0.30958386  0.94913036     0.29000
H2620       H  0.96476583  0.29648272  0.88255649     0.29000
H2621       H  0.88574244  0.29613312  0.88760696     0.19600
H2622       H  0.92900802  0.27994675  0.94331524     0.19600
C2623       C  0.65765843  0.23214968  0.90341748    -0.06200
C2624       C  0.64510331  0.23715756  0.88797415    -0.17400
C2625       C  0.61470183  0.23123326  0.88769890     0.10900
C2626       C  0.59671977  0.22113923  0.90350850    -0.06200
C2627       C  0.60829539  0.21296207  0.91827475    -0.17400
C2628       C  0.63819669  0.21765494  0.91821525     0.11000
S2629       S  0.59937095  0.23655315  0.86699827    -0.32400
S2630       S  0.65010657  0.20437834  0.93733140    -0.32400
H2631       H  0.67031064  0.19793115  0.92776094     0.29000
H2632       H  0.62490517  0.24351425  0.85619950     0.29000
H2633       H  0.65958483  0.24705276  0.87637070     0.19600
H2634       H  0.59441976  0.20383156  0.93018391     0.19600
C2635       C  0.71360438  0.09481081  0.91012966    -0.06200
C2636       C  0.71208297  0.10905069  0.92583570    -0.17400
C2637       C  0.71829062  0.13946609  0.92554519     0.10900
C2638       C  0.72692993  0.15601825  0.90927255    -0.06200
C2639       C  0.72474959  0.14044882  0.89333144    -0.17400
C2640       C  0.71806237  0.10996670  0.89359734     0.11000
S2641       S  0.71597353  0.15617684  0.94640659    -0.32400
S2642       S  0.71847034  0.09254780  0.87257486    -0.32400
H2643       H  0.70004405  0.06191919  0.87821443     0.29000
H2644       H  0.70761777  0.17646758  0.93868493     0.29000
H2645       H  0.70829914  0.09728946  0.93850652     0.19600
H2646       H  0.73050759  0.15267463  0.88073229     0.19600
C2647       C  0.78511585  0.37976745  0.91148780    -0.06200
C2648       C  0.78532948  0.39158444  0.89447300    -0.17400
C2649       C  0.78047440  0.41657364  0.89226714     0.10900
C2650       C  0.77444835  0.42964039  0.90739879    -0.06200
C2651       C  0.77631331  0.41885900  0.92446054    -0.17400
C2652       C  0.78187647  0.39449909  0.92663996     0.11000
S2653       S  0.78263515  0.43072504  0.86992346    -0.32400
S2654       S  0.78450160  0.38325041  0.94912482    -0.32400
H2655       H  0.80458586  0.37225318  0.94504856     0.29000
H2656       H  0.79818909  0.46189878  0.87500834     0.29000
H2657       H  0.78835963  0.38066306  0.88276181     0.19600
H2658       H  0.77261583  0.42892101  0.93634650     0.19600
C2659       C  0.57154964  0.45429807  0.75910223    -0.06200
C2660       C  0.55392779  0.44744150  0.77485211    -0.17400
C2661       C  0.52335330  0.42331017  0.77560047     0.10900
C2662       C  0.50987728  0.40449762  0.76045039    -0.06200
C2663       C  0.52820702  0.40985105  0.74517900    -0.17400
C2664       C  0.55839990  0.43457611  0.74420335     0.11000
S2665       S  0.50213850  0.41971312  0.79569236    -0.32400
S2666       S  0.57751426  0.44108010  0.72298325    -0.32400
H2667       H  0.58485389  0.47200165  0.72193420     0.29000
H2668       H  0.97651450  0.41858757  0.78575477     0.29000
H2669       H  0.56350029  0.46206662  0.78647955     0.19600
H2670       H  0.51832276  0.39559814  0.73343813     0.19600
C2671       C  0.78371663  0.24170453  0.74546129    -0.06200
C2672       C  0.77119661  0.22966785  0.76225935    -0.17400
C2673       C  0.74793560  0.19899001  0.76411924     0.10900
C2674       C  0.73699183  0.17993888  0.74885352    -0.06200
C2675       C  0.74744206  0.19289942  0.73190333    -0.17400
C2676       C  0.77078175  0.22352240  0.73006814     0.11000
S2677       S  0.73402501  0.18522004  0.78632520    -0.32400
S2678       S  0.78468736  0.23754949  0.70788309    -0.32400
H2679       H  0.79701920  0.26890045  0.71195794     0.29000
H2680       H  0.70416329  0.16309088  0.78098543     0.29000
H2681       H  0.78113713  0.24353596  0.77413133     0.19600
H2682       H  0.73882339  0.17857921  0.72008460     0.19600
C2683       C  0.90502076  0.48999218  0.75948568    -0.06200
C2684       C  0.91222994  0.48135964  0.74313854    -0.17400
C2685       C  0.90569934  0.45141642  0.73986601     0.10900
C2686       C  0.89218903  0.42901142  0.75338954    -0.06200
C2687       C  0.88474802  0.43732403  0.76981811    -0.17400
C2688       C  0.89080993  0.46750505  0.77296659     0.11000
S2689       S  0.91480064  0.44335369  0.71791309    -0.32400
S2690       S  0.87934284  0.47555542  0.79413849    -0.32400
H2691       H  0.87165549  0.99617346  0.78781716     0.29000
H2692       H  0.88943529  0.41335449  0.71688405     0.29000
H2693       H  0.92302957  0.49820980  0.73259948     0.19600
H2694       H  0.87465172  0.42037482  0.78035899     0.19600
C2695       C  0.93908367  0.25740882  0.75084713    -0.06200
C2696       C  0.94504595  0.24732276  0.76702184    -0.17400
C2697       C  0.95424692  0.22537376  0.76728958     0.10900
C2698       C  0.95727168  0.21282010  0.75108298    -0.06200
C2699       C  0.95431147  0.22491695  0.73487122    -0.17400
C2700       C  0.94586497  0.24758193  0.73457343     0.11000
S2701       S  0.95865220  0.21189341  0.78881183    -0.32400
S2702       S  0.94368514  0.26247347  0.71306250    -0.32400
H2703       H  0.95397274  0.29255218  0.71925016     0.29000
H2704       H  0.97797346  0.20092049  0.78295087     0.29000
H2705       H  0.94078683  0.25516937  0.77960455     0.19600
H2706       H  0.95666062  0.21531977  0.72240979     0.19600
C2707       C  0.81465773  0.29038704  0.84624961    -0.06200
C2708       C  0.82602459  0.31976178  0.83883662    -0.17400
C2709       C  0.84501751  0.32916718  0.82378726     0.10900
C2710       C  0.85317187  0.30887529  0.81562069    -0.06200
C2711       C  0.84187946  0.27938735  0.82295172    -0.17400
C2712       C  0.82301491  0.27005565  0.83824640     0.11000
S2713       S  0.85827078  0.36763119  0.81566540    -0.32400
S2714       S  0.81102310  0.23234658  0.84708894    -0.32400
H2715       H  0.81348991  0.24086412  0.86516614     0.29000
H2716       H  0.88621988  0.37224712  0.80869211     0.29000
H2717       H  0.82048641  0.33587013  0.84507835     0.19600
H2718       H  0.84732300  0.26334239  0.81654996     0.19600
C2719       C  0.72013458  0.99978207  0.01622385    -0.06200
C2720       C  0.73485299  0.48631237  0.00679178    -0.17400
C2721       C  0.73487617  0.48443727  0.98817823     0.10900
C2722       C  0.72134174  0.99730999  0.97831366    -0.06200
C2723       C  0.70565340  0.01018344  0.98704652    -0.17400
C2724       C  0.70501146  0.01168004  0.00576992     0.11000
S2725       S  0.75083005  0.46241367  0.97870200    -0.32400
S2726       S  0.68628455  0.03084535  0.01534558    -0.32400
H2727       H  0.70999074  0.04759217  0.02766238     0.29000
H2728       H  0.72836515  0.44876829  0.96526983     0.29000
H2729       H  0.74511492  0.47542796  0.01441082     0.19600
H2730       H  0.69490591  0.02038249  0.97925371     0.19600
C2731       C  0.67913058  0.46994475  0.14717582    -0.06200
C2732       C  0.66285848  0.43884033  0.15244630    -0.17400
C2733       C  0.64162028  0.42862735  0.16651615     0.10900
C2734       C  0.63658218  0.44985140  0.17623167    -0.06200
C2735       C  0.65212950  0.48079452  0.17080124    -0.17400
C2736       C  0.67277898  0.49093207  0.15632940     0.11000
S2737       S  0.62108356  0.38792187  0.17112273    -0.32400
S2738       S  0.68270845  0.02743047  0.14835215    -0.32400
H2739       H  0.67583799  0.01894512  0.13028880     0.29000
H2740       H  0.59413719  0.38699497  0.17712782     0.29000
H2741       H  0.66634950  0.42200785  0.14537839     0.19600
H2742       H  0.64866034  0.49742323  0.17812968     0.19600
C2743       C  0.76813463  0.26328119  0.01815586    -0.06200
C2744       C  0.76605600  0.28693642  0.00941037    -0.17400
C2745       C  0.76767413  0.28979494  0.99081560     0.10900
C2746       C  0.77055143  0.26799154  0.98029912    -0.06200
C2747       C  0.77337437  0.24471172  0.98901433    -0.17400
C2748       C  0.77195227  0.24193894  0.00767366     0.11000
S2749       S  0.76759353  0.32280584  0.98154270    -0.32400
S2750       S  0.77346857  0.20968173  0.01702665    -0.32400
H2751       H  0.74892306  0.20163612  0.02889627     0.29000
H2752       H  0.79072397  0.32890256  0.96895774     0.29000
H2753       H  0.76390284  0.30399208  0.01716687     0.19600
H2754       H  0.77559358  0.22774979  0.98120244     0.19600
C2755       C  0.78758973  0.37792320  0.07852273    -0.06200
C2756       C  0.79260716  0.39444211  0.09449680    -0.17400
C2757       C  0.78514061  0.41776535  0.09589114     0.10900
C2758       C  0.77210406  0.42443764  0.08106409    -0.06200
C2759       C  0.77003249  0.40999190  0.06466107    -0.17400
C2760       C  0.77769343  0.38691692  0.06323028     0.11000
S2761       S  0.79222139  0.43772105  0.11692018    -0.32400
S2762       S  0.77280065  0.36857489  0.04178466    -0.32400
H2763       H  0.79421072  0.35882024  0.04478386     0.29000
H2764       H  0.79703787  0.46558120  0.10960632     0.29000
H2765       H  0.80041437  0.38779095  0.10627593     0.19600
H2766       H  0.76084014  0.41556808  0.05307348     0.19600
C2767       C  0.72778387  0.15284349  0.09422438    -0.06200
C2768       C  0.71876101  0.13710306  0.07777208    -0.17400
C2769       C  0.71140277  0.10636578  0.07612894     0.10900
C2770       C  0.71210126  0.09019362  0.09136748    -0.06200
C2771       C  0.71850937  0.10511382  0.10806956    -0.17400
C2772       C  0.72666486  0.13613574  0.10964470     0.11000
S2773       S  0.70441004  0.09033082  0.05396924    -0.32400
S2774       S  0.73805101  0.15353996  0.13139762    -0.32400
H2775       H  0.76512329  0.17936087  0.12528843     0.29000
H2776       H  0.72559734  0.07994545  0.05556051     0.29000
H2777       H  0.71900711  0.14936366  0.06581182     0.19600
H2778       H  0.71902857  0.09300625  0.11992004     0.19600
C2779       C  0.92498894  0.38936015  0.24487326    -0.06200
C2780       C  0.93661813  0.39020183  0.22769842    -0.17400
C2781       C  0.96738289  0.39804000  0.22514736     0.10900
C2782       C  0.98711168  0.40554313  0.24011210    -0.06200
C2783       C  0.97489224  0.40395845  0.25724543    -0.17400
C2784       C  0.94437540  0.39582795  0.25976497     0.11000
S2785       S  0.97977987  0.39800597  0.20260849    -0.32400
S2786       S  0.93170957  0.39455063  0.28243483    -0.32400
H2787       H  0.90139482  0.37084806  0.27936010     0.29000
H2788       H  0.49461649  0.37969668  0.20845328     0.29000
H2789       H  0.92194435  0.38572711  0.21616674     0.19600
H2790       H  0.98934825  0.40953233  0.26897788     0.19600
C2791       C  0.71072201  0.45876931  0.24552813    -0.06200
C2792       C  0.72247687  0.45569238  0.26183757    -0.17400
C2793       C  0.74557224  0.44778001  0.26234391     0.10900
C2794       C  0.75670579  0.44245645  0.24609990    -0.06200
C2795       C  0.74701135  0.44874105  0.22987610    -0.17400
C2796       C  0.72422050  0.45683627  0.22943864     0.11000
S2797       S  0.75998238  0.44400483  0.28377025    -0.32400
S2798       S  0.71126633  0.46174161  0.20784720    -0.32400
H2799       H  0.69943616  0.48029819  0.21382804     0.29000
H2800       H  0.74309788  0.45344908  0.29436182     0.29000
H2801       H  0.71192347  0.45718564  0.27412135     0.19600
H2802       H  0.75580886  0.44547226  0.21735514     0.19600
C2803       C  0.79866110  0.35113795  0.18320233    -0.06200
C2804       C  0.78138918  0.31864011  0.18389305    -0.17400
C2805       C  0.77258470  0.30032608  0.16841058     0.10900
C2806       C  0.78210985  0.31437427  0.15151462    -0.06200
C2807       C  0.79806883  0.34691450  0.15081296    -0.17400
C2808       C  0.80589996  0.36522162  0.16626318     0.11000
S2809       S  0.75086904  0.25929425  0.17129118    -0.32400
S2810       S  0.82703148  0.40627783  0.16344881    -0.32400
H2811       H  0.80538644  0.41066839  0.17292830     0.29000
H2812       H  0.72636304  0.25603382  0.16063912     0.29000
H2813       H  0.77501599  0.30722854  0.19668603     0.19600
H2814       H  0.80492259  0.35844558  0.13802011     0.19600
C2815       C  0.60192522  0.09613823  0.23916908    -0.06200
C2816       C  0.59831227  0.08046147  0.22304588    -0.17400
C2817       C  0.60469002  0.05635511  0.22184878     0.10900
C2818       C  0.61418942  0.04687566  0.23726069    -0.06200
C2819       C  0.62011195  0.06417094  0.25298109    -0.17400
C2820       C  0.61457197  0.08882478  0.25403054     0.11000
S2821       S  0.60007296  0.03865388  0.20023968    -0.32400
S2822       S  0.62411756  0.10990703  0.27478758    -0.32400
H2823       H  0.63328308  0.13857031  0.26679883     0.29000
H2824       H  0.62427934  0.03254370  0.20250935     0.29000
H2825       H  0.58943468  0.08627950  0.21141563     0.19600
H2826       H  0.62801077  0.05774939  0.26480312     0.19600
C2827       C  0.55724939  0.32163827  0.24901822    -0.06200
C2828       C  0.54508367  0.30176486  0.23433631    -0.17400
C2829       C  0.53545527  0.27043248  0.23594314     0.10900
C2830       C  0.53894179  0.25887992  0.25244326    -0.06200
C2831       C  0.54977318  0.27855612  0.26728297    -0.17400
C2832       C  0.55860880  0.30960180  0.26580530     0.11000
S2833       S  0.52253402  0.24722347  0.21602669    -0.32400
S2834       S  0.57555010  0.33362402  0.28514198    -0.32400
H2835       H  0.55297553  0.34226595  0.28611446     0.29000
H2836       H  0.49781275  0.22205892  0.22449612     0.29000
H2837       H  0.54381053  0.31086059  0.22144234     0.19600
H2838       H  0.55336813  0.27011451  0.27985525     0.19600
C2839       C  0.90967948  0.00926204  0.24086922    -0.06200
C2840       C  0.90481352  0.03405596  0.23781316    -0.17400
C2841       C  0.92832527  0.06457652  0.24088774     0.10900
C2842       C  0.95751597  0.07049039  0.24704343    -0.06200
C2843       C  0.96212981  0.04527539  0.24943152    -0.17400
C2844       C  0.93897095  0.01520060  0.24624929     0.11000
S2845       S  0.91897238  0.09440780  0.23747572    -0.32400
S2846       S  0.95078926  0.48548204  0.24315472    -0.32400
H2847       H  0.92796263  0.46504635  0.23129940     0.29000
H2848       H  0.93137561  0.10883852  0.25394204     0.29000
H2849       H  0.88217823  0.02955741  0.23394043     0.19600
H2850       H  0.98429001  0.04880003  0.25358981     0.19600
C2851       C  0.73907111  0.28735822  0.25108976    -0.06200
C2852       C  0.72671675  0.27787941  0.23393221    -0.17400
C2853       C  0.69536956  0.25722966  0.23150038     0.10900
C2854       C  0.67618760  0.24466257  0.24660344    -0.06200
C2855       C  0.68939228  0.25235018  0.26377297    -0.17400
C2856       C  0.72048138  0.27369229  0.26613440     0.11000
S2857       S  0.68100110  0.25125316  0.20893890    -0.32400
S2858       S  0.73473656  0.28432793  0.28865028    -0.32400
H2859       H  0.76577484  0.29534788  0.28445697     0.29000
H2860       H  0.65622261  0.25571338  0.21310199     0.29000
H2861       H  0.74074352  0.28916510  0.22241957     0.19600
H2862       H  0.67522944  0.24253026  0.27548106     0.19600
C2863       C  0.50081151  0.22781691  0.01817173    -0.06200
C2864       C  0.98350782  0.23695444  0.00916658    -0.17400
C2865       C  0.98467192  0.23864086  0.99049444     0.10900
C2866       C  0.50491296  0.23209782  0.98037779    -0.06200
C2867       C  0.52139630  0.22119248  0.99005568    -0.17400
C2868       C  0.51941409  0.21877930  0.00873107     0.11000
S2869       S  0.95937090  0.24929876  0.97960751    -0.32400
S2870       S  0.54045342  0.20307248  0.01959945    -0.32400
H2871       H  0.51842059  0.18744096  0.03297517     0.29000
H2872       H  0.95170179  0.22833385  0.96539746     0.29000
H2873       H  0.96883416  0.24346056  0.01624980     0.19600
H2874       H  0.53602905  0.21457992  0.98302456     0.19600
C2875       C  0.58840986  0.20679271  0.08763447    -0.06200
C2876       C  0.60388279  0.21713570  0.10397899    -0.17400
C2877       C  0.63536661  0.22770060  0.10532491     0.10900
C2878       C  0.65164614  0.22718126  0.09006561    -0.06200
C2879       C  0.63557291  0.21481241  0.07404954    -0.17400
C2880       C  0.60418925  0.20452906  0.07272498     0.11000
S2881       S  0.65386091  0.24474680  0.12624807    -0.32400
S2882       S  0.58582344  0.19025512  0.05143832    -0.32400
H2883       H  0.55577636  0.17313452  0.05815671     0.29000
H2884       H  0.67963192  0.26991439  0.11846284     0.29000
H2885       H  0.59203080  0.21977273  0.11533640     0.19600
H2886       H  0.64770193  0.21377356  0.06235041     0.19600
C2887       C  0.92295943  0.26730081  0.09329037    -0.06200
C2888       C  0.91480230  0.27401978  0.07659742    -0.17400
C2889       C  0.89149549  0.28118449  0.07490772     0.10900
C2890       C  0.87586802  0.28225143  0.09022972    -0.06200
C2891       C  0.88527016  0.27787226  0.10709349    -0.17400
C2892       C  0.90827813  0.26993889  0.10879293     0.11000
S2893       S  0.88174713  0.28734595  0.05268070    -0.32400
S2894       S  0.91544827  0.26058138  0.13081129    -0.32400
H2895       H  0.91304908  0.23258211  0.12548376     0.29000
H2896       H  0.87034521  0.30667784  0.05782749     0.29000
H2897       H  0.92610687  0.27284969  0.06454647     0.19600
H2898       H  0.87290463  0.27812695  0.11888611     0.19600
C2899       C  0.61897638  0.40577282  0.08117717    -0.06200
C2900       C  0.60840008  0.39458081  0.09842068    -0.17400
C2901       C  0.58679986  0.36359698  0.10134094     0.10900
C2902       C  0.57460918  0.34337863  0.08658097    -0.06200
C2903       C  0.58358678  0.35540800  0.06922900    -0.17400
C2904       C  0.60573764  0.38618548  0.06640763     0.11000
S2905       S  0.57888871  0.35095567  0.12422379    -0.32400
S2906       S  0.61822850  0.39839670  0.04380667    -0.32400
H2907       H  0.62939969  0.42986335  0.04684390     0.29000
H2908       H  0.58353588  0.32583727  0.12157475     0.29000
H2909       H  0.61934077  0.40937886  0.10984314     0.19600
H2910       H  0.57416603  0.34044786  0.05772268     0.19600
C2911       C  0.90014902  0.12288123  0.08651937    -0.06200
C2912       C  0.88953359  0.10572993  0.10238823    -0.17400
C2913       C  0.85877158  0.08217586  0.10419639     0.10900
C2914       C  0.83795769  0.07610201  0.09000433    -0.06200
C2915       C  0.84895052  0.09279245  0.07406797    -0.17400
C2916       C  0.87955431  0.11547157  0.07204499     0.11000
S2917       S  0.84776728  0.06039389  0.12463197    -0.32400
S2918       S  0.89071289  0.13382152  0.05046039    -0.32400
H2919       H  0.92048455  0.13789597  0.05087771     0.29000
H2920       H  0.82790289  0.03203022  0.11641490     0.29000
H2921       H  0.90506527  0.11117474  0.11358971     0.19600
H2922       H  0.83345530  0.08809768  0.06291573     0.19600
C2923       C  0.51585010  0.20840181  0.15354379    -0.06200
C2924       C  0.54434941  0.22905067  0.16126340    -0.17400
C2925       C  0.55557839  0.22064775  0.17616928     0.10900
C2926       C  0.53795324  0.19102685  0.18372838    -0.06200
C2927       C  0.50906369  0.17085770  0.17632512    -0.17400
C2928       C  0.49789210  0.17911670  0.16146558     0.11000
S2929       S  0.59167674  0.24918745  0.18556575    -0.32400
S2930       S  0.95511013  0.17998462  0.16443544    -0.32400
H2931       H  0.95877080  0.20450024  0.15366657     0.29000
H2932       H  0.60359974  0.22926081  0.18691220     0.29000
H2933       H  0.55854207  0.25139761  0.15520980     0.19600
H2934       H  0.49470746  0.14859325  0.18245106     0.19600
C2935       C  0.89410191  0.32841381  0.64445022    -0.06200
C2936       C  0.92259879  0.34248514  0.65331795    -0.17400
C2937       C  0.92453382  0.34406103  0.67195295     0.10900
C2938       C  0.89742598  0.33186357  0.68218340    -0.06200
C2939       C  0.86890081  0.31796716  0.67344493    -0.17400
C2940       C  0.86690070  0.31595172  0.65476493     0.11000
S2941       S  0.96220227  0.36058653  0.68186997    -0.32400
S2942       S  0.82901725  0.29584239  0.64509111    -0.32400
H2943       H  0.83645013  0.28019232  0.63222028     0.29000
H2944       H  0.95329464  0.33961367  0.69611921     0.29000
H2945       H  0.94367988  0.35214446  0.64566351     0.19600
H2946       H  0.84797746  0.30810952  0.68126472     0.19600
C2947       C  0.82572669  0.39186613  0.35366600    -0.06200
C2948       C  0.84456373  0.38387301  0.34398667    -0.17400
C2949       C  0.84517361  0.38470502  0.32530836     0.10900
C2950       C  0.82687885  0.39416587  0.31600567    -0.06200
C2951       C  0.80699771  0.40078391  0.32566595    -0.17400
C2952       C  0.80604787  0.39954464  0.34431737     0.11000
S2953       S  0.86924363  0.37278900  0.31420821    -0.32400
S2954       S  0.77894254  0.40760408  0.35533687    -0.32400
H2955       H  0.77290090  0.38715988  0.36961075     0.29000
H2956       H  0.84978028  0.35937364  0.29941024     0.29000
H2957       H  0.85949556  0.37764725  0.35103164     0.19600
H2958       H  0.79231911  0.40734644  0.31862420     0.19600
C2959       C  0.88567784  0.36532835  0.51325076    -0.06200
C2960       C  0.90455545  0.39608481  0.50781149    -0.17400
C2961       C  0.89558581  0.40928249  0.49431412     0.10900
C2962       C  0.86704685  0.39147780  0.48560464    -0.06200
C2963       C  0.84788287  0.36104139  0.49118697    -0.17400
C2964       C  0.85691767  0.34778322  0.50462951     0.11000
S2965       S  0.92118425  0.44933370  0.48930366    -0.32400
S2966       S  0.83009010  0.30867474  0.51036274    -0.32400
H2967       H  0.85093412  0.29847580  0.50661604     0.29000
H2968       H  0.89783455  0.45565610  0.48458245     0.29000
H2969       H  0.92637602  0.41035147  0.51441345     0.19600
H2970       H  0.82615350  0.34690928  0.48445488     0.19600
C2971       C  0.67528938  0.06056894  0.64834448    -0.06200
C2972       C  0.65776310  0.03158121  0.65636047    -0.17400
C2973       C  0.65442805  0.02848975  0.67493741     0.10900
C2974       C  0.66783356  0.05504885  0.68581526    -0.06200
C2975       C  0.68556798  0.08397729  0.67774676    -0.17400
C2976       C  0.68981452  0.08695725  0.65926176     0.11000
S2977       S  0.63084704  0.99046581  0.68383567    -0.32400
S2978       S  0.71159079  0.12518764  0.65026617    -0.32400
H2979       H  0.73299151  0.11924805  0.64174521     0.29000
H2980       H  0.65536207  0.99102936  0.69320583     0.29000
H2981       H  0.64630522  0.01119604  0.64805186     0.19600
H2982       H  0.69623285  0.10455289  0.68593217     0.19600
C2983       C  0.58053796  0.45100113  0.58325691    -0.06200
C2984       C  0.56766524  0.43937518  0.56645246    -0.17400
C2985       C  0.53684947  0.41650710  0.56476280     0.10900
C2986       C  0.51847075  0.40499256  0.58022473    -0.06200
C2987       C  0.53214898  0.41479749  0.59710301    -0.17400
C2988       C  0.56292326  0.43777664  0.59876845     0.11000
S2989       S  0.52217512  0.40371345  0.54253494    -0.32400
S2990       S  0.57798410  0.45056749  0.62095542    -0.32400
H2991       H  0.60899641  0.46220353  0.61643733     0.29000
H2992       H  0.00170861  0.37490352  0.54658771     0.29000
H2993       H  0.58110153  0.44960046  0.55450448     0.19600
H2994       H  0.51835352  0.40580490  0.60905613     0.19600
C2995       C  0.79295865  0.23903999  0.57130433    -0.06200
C2996       C  0.77921276  0.22565534  0.58764655    -0.17400
C2997       C  0.75541557  0.19498456  0.58859038     0.10900
C2998       C  0.74564564  0.17659118  0.57291299    -0.06200
C2999       C  0.75756584  0.19073875  0.55643039    -0.17400
C3000       C  0.78061941  0.22168979  0.55546446     0.11000
S3001       S  0.73840163  0.18092186  0.61021774    -0.32400
S3002       S  0.79306165  0.23789154  0.53360454    -0.32400
H3003       H  0.79815594  0.26697739  0.53882797     0.29000
H3004       H  0.70846803  0.16197249  0.60362141     0.29000
H3005       H  0.78780560  0.23879139  0.59989097     0.19600
H3006       H  0.74954437  0.17740824  0.54421788     0.19600
C3007       C  0.61282714  0.44445272  0.34862926    -0.06200
C3008       C  0.58393050  0.43142251  0.34035341    -0.17400
C3009       C  0.58088798  0.43342945  0.32192482     0.10900
C3010       C  0.60740280  0.44811699  0.31100975    -0.06200
C3011       C  0.63640931  0.46144701  0.31926758    -0.17400
C3012       C  0.63940589  0.45952460  0.33781333     0.11000
S3013       S  0.54233420  0.41788315  0.31347058    -0.32400
S3014       S  0.67766304  0.47496725  0.34659837    -0.32400
H3015       H  0.66946574  0.45066778  0.35867846     0.29000
H3016       H  0.55001050  0.44202235  0.30132302     0.29000
H3017       H  0.56329007  0.42034736  0.34841132     0.19600
H3018       H  0.65697201  0.47234099  0.31114532     0.19600
C3019       C  0.92858112  0.38348559  0.41471478    -0.06200
C3020       C  0.94231684  0.38399606  0.43110484    -0.17400
C3021       C  0.97287622  0.39110436  0.43201477     0.10900
C3022       C  0.99022148  0.39796031  0.41616172    -0.06200
C3023       C  0.97570629  0.39478671  0.39962812    -0.17400
C3024       C  0.94509285  0.38785442  0.39874907     0.11000
S3025       S  0.98875269  0.39249003  0.45383343    -0.32400
S3026       S  0.92968048  0.38868261  0.37714708    -0.32400
H3027       H  0.89877591  0.36873504  0.38157311     0.29000
H3028       H  0.51053915  0.38414311  0.44693782     0.29000
H3029       H  0.92978182  0.38101391  0.44341487     0.19600
H3030       H  0.48890670  0.40155858  0.38667504     0.19600
C3031       C  0.71371108  0.45431048  0.42336505    -0.06200
C3032       C  0.72561261  0.45367342  0.44025970    -0.17400
C3033       C  0.75094667  0.44938515  0.44206500     0.10900
C3034       C  0.76423100  0.44462890  0.42664407    -0.06200
C3035       C  0.75317286  0.44696397  0.40975368    -0.17400
C3036       C  0.72805762  0.45133375  0.40795922     0.11000
S3037       S  0.76536443  0.45084802  0.46427477    -0.32400
S3038       S  0.71378266  0.44980154  0.38567567    -0.32400
H3039       H  0.68274396  0.43022970  0.39011721     0.29000
H3040       H  0.79643336  0.46673603  0.45913258     0.29000
H3041       H  0.71491451  0.45631792  0.45216584     0.19600
H3042       H  0.76290439  0.44346007  0.39768834     0.19600
C3043       C  0.62424678  0.48450748  0.48244084    -0.06200
C3044       C  0.65243587  0.49047247  0.48977240    -0.17400
C3045       C  0.66508527  0.01002222  0.50549231     0.10900
C3046       C  0.64886326  0.02287136  0.51387914    -0.06200
C3047       C  0.62037686  0.01626568  0.50678546    -0.17400
C3048       C  0.60875232  0.49844743  0.49061097     0.11000
S3049       S  0.70239720  0.01777479  0.51299590    -0.32400
S3050       S  0.57133138  0.49081389  0.48354125    -0.32400
H3051       H  0.56032486  0.45961621  0.47957115     0.29000
H3052       H  0.71149612  0.04702199  0.52013709     0.29000
H3053       H  0.66514300  0.48079299  0.48353084     0.19600
H3054       H  0.60716230  0.02496158  0.51348092     0.19600
C3055       C  0.56631673  0.17268509  0.35414812    -0.06200
C3056       C  0.59132439  0.19499067  0.34442052    -0.17400
C3057       C  0.59172753  0.19415454  0.32581333     0.10900
C3058       C  0.56614984  0.17081611  0.31651233    -0.06200
C3059       C  0.54119228  0.14824115  0.32624704    -0.17400
C3060       C  0.54112859  0.14872947  0.34494765     0.11000
S3061       S  0.62628700  0.22269783  0.31487657    -0.32400
S3062       S  0.50898660  0.11747020  0.35621738    -0.32400
H3063       H  0.52631601  0.11525678  0.37028350     0.29000
H3064       H  0.62633315  0.20246763  0.30187875     0.29000
H3065       H  0.61098065  0.21305278  0.35141474     0.19600
H3066       H  0.52166455  0.13004866  0.31924577     0.19600
C3067       C  0.61537398  0.09834257  0.41572226    -0.06200
C3068       C  0.62152058  0.08729238  0.43141139    -0.17400
C3069       C  0.62983815  0.06472810  0.43080632     0.10900
C3070       C  0.63142188  0.05237201  0.41419101    -0.06200
C3071       C  0.62815580  0.06532537  0.39839292    -0.17400
C3072       C  0.62004441  0.08821890  0.39896006     0.11000
S3073       S  0.63518104  0.05035692  0.45178235    -0.32400
S3074       S  0.61262684  0.10081992  0.37795326    -0.32400
H3075       H  0.58550990  0.09986813  0.38361742     0.29000
H3076       H  0.65607496  0.53957872  0.44296905     0.29000
H3077       H  0.61874171  0.09551118  0.44428405     0.19600
H3078       H  0.62883172  0.05544850  0.38563412     0.19600
C3079       C  0.57362203  0.32794106  0.42497629    -0.06200
C3080       C  0.57018695  0.31208448  0.40882955    -0.17400
C3081       C  0.56543092  0.28219358  0.40854942     0.10900
C3082       C  0.56309948  0.26697216  0.42479747    -0.06200
C3083       C  0.56552709  0.28226620  0.44095249    -0.17400
C3084       C  0.57028411  0.31222993  0.44125206     0.11000
S3085       S  0.56535805  0.26599978  0.38701741    -0.32400
S3086       S  0.57112717  0.32852819  0.46282770    -0.32400
H3087       H  0.55325517  0.34146409  0.45741054     0.29000
H3088       H  0.58437775  0.25430287  0.39229344     0.29000
H3089       H  0.57282642  0.32358220  0.39617354     0.19600
H3090       H  0.56363828  0.27070178  0.45349871     0.19600
C3091       C  0.74575038  0.30140821  0.42814281    -0.06200
C3092       C  0.72859416  0.29469027  0.44399568    -0.17400
C3093       C  0.69862521  0.26980421  0.44515295     0.10900
C3094       C  0.68491974  0.25093759  0.42999134    -0.06200
C3095       C  0.70292206  0.25679821  0.41446361    -0.17400
C3096       C  0.73263481  0.28191580  0.41324375     0.11000
S3097       S  0.67932874  0.26435193  0.46622231    -0.32400
S3098       S  0.75107644  0.28929582  0.39172178    -0.32400
H3099       H  0.75916046  0.32048123  0.39140170     0.29000
H3100       H  0.67102012  0.23316869  0.46740665     0.29000
H3101       H  0.73846984  0.30932410  0.45559492     0.19600
H3102       H  0.69329936  0.24272451  0.40264799     0.19600
C3103       C  0.96342344  0.08392577  0.41652475    -0.06200
C3104       C  0.95456856  0.06805730  0.40026017    -0.17400
C3105       C  0.93203403  0.03699969  0.39972658     0.10900
C3106       C  0.91769770  0.02191757  0.41579002    -0.06200
C3107       C  0.92503850  0.03855697  0.43179894    -0.17400
C3108       C  0.94771579  0.06940805  0.43232774     0.11000
S3109       S  0.92544568  0.01725916  0.37864125    -0.32400
S3110       S  0.95783164  0.08812093  0.45384732    -0.32400
H3111       H  0.97089257  0.11833645  0.44734999     0.29000
H3112       H  0.92100911  0.49303019  0.38503038     0.29000
H3113       H  0.96738378  0.07900370  0.38823904     0.19600
H3114       H  0.91381358  0.02711846  0.44411430     0.19600
C3115       C  0.94295084  0.10776295  0.65009368    -0.06200
C3116       C  0.96891090  0.11056916  0.65899064    -0.17400
C3117       C  0.97064603  0.11078800  0.67770393     0.10900
C3118       C  0.94600194  0.10842432  0.68794338    -0.06200
C3119       C  0.92035353  0.10620317  0.67911093    -0.17400
C3120       C  0.91845382  0.10571017  0.66044308     0.11000
S3121       S  0.00422898  0.11271119  0.68762181    -0.32400
S3122       S  0.88335982  0.10062225  0.65082419    -0.32400
H3123       H  0.88033381  0.07819735  0.63842711     0.29000
H3124       H  0.98890288  0.09361998  0.70225211     0.29000
H3125       H  0.98785741  0.11208157  0.65129532     0.19600
H3126       H  0.90127010  0.10424539  0.68687314     0.19600
C3127       C  0.94845091  0.20615166  0.57341209    -0.06200
C3128       C  0.92347462  0.20118551  0.56265052    -0.17400
C3129       C  0.91692728  0.22472183  0.55924470     0.10900
C3130       C  0.93517892  0.25385920  0.56722581    -0.06200
C3131       C  0.96129501  0.25922288  0.57709273    -0.17400
C3132       C  0.96802854  0.23576052  0.58032363     0.11000
S3133       S  0.88346774  0.21528487  0.54601958    -0.32400
S3134       S  0.00043136  0.24451611  0.59445799    -0.32400
H3135       H  0.98722336  0.21572069  0.60292828     0.29000
H3136       H  0.89983673  0.23949562  0.53390796     0.29000
H3137       H  0.90848667  0.17848845  0.55715581     0.19600
H3138       H  0.97568688  0.28151184  0.58321523     0.19600
C3139       C  0.90289200  0.48723805  0.58012965    -0.06200
C3140       C  0.90151133  0.47371126  0.59684064    -0.17400
C3141       C  0.89250743  0.44259360  0.59835365     0.10900
C3142       C  0.88378186  0.42405736  0.58295831    -0.06200
C3143       C  0.88271327  0.43671260  0.56648673    -0.17400
C3144       C  0.89274464  0.46808228  0.56478297     0.11000
S3145       S  0.89567504  0.42859078  0.61996974    -0.32400
S3146       S  0.89544698  0.48234773  0.54238687    -0.32400
H3147       H  0.92570341  0.00486833  0.54453093     0.29000
H3148       H  0.87458228  0.39743605  0.61658025     0.29000
H3149       H  0.90873024  0.48770032  0.60881428     0.19600
H3150       H  0.87716229  0.42273771  0.55452377     0.19600
C3151       C  0.82793171  0.06161332  0.57482632    -0.06200
C3152       C  0.81257284  0.05370508  0.59139043    -0.17400
C3153       C  0.78191467  0.04615304  0.59295200     0.10900
C3154       C  0.76570670  0.04625452  0.57766546    -0.06200
C3155       C  0.77988235  0.05145694  0.56088354    -0.17400
C3156       C  0.81084660  0.05944639  0.55929405     0.11000
S3157       S  0.76501174  0.03777819  0.61494553    -0.32400
S3158       S  0.82768644  0.06943780  0.53738241    -0.32400
H3159       H  0.85270862  0.09768810  0.54292000     0.29000
H3160       H  0.73450962  0.01914581  0.60917512     0.29000
H3161       H  0.82482253  0.05429918  0.60343030     0.19600
H3162       H  0.76753435  0.05178338  0.54909546     0.19600
C3163       C  0.55315809  0.12211939  0.58422871    -0.06200
C3164       C  0.56823241  0.12076617  0.59962770    -0.17400
C3165       C  0.59151241  0.11326242  0.59859493     0.10900
C3166       C  0.59903652  0.10557478  0.58184489    -0.06200
C3167       C  0.58561163  0.10939884  0.56634370    -0.17400
C3168       C  0.56257412  0.11719443  0.56738119     0.11000
S3169       S  0.61061133  0.11391897  0.61911745    -0.32400
S3170       S  0.54400581  0.11755421  0.54685400    -0.32400
H3171       H  0.01401879  0.10039294  0.55302983     0.29000
H3172       H  0.63945843  0.12410555  0.61115561     0.29000
H3173       H  0.56112149  0.12457590  0.61257635     0.19600
H3174       H  0.59139166  0.10404623  0.55341110     0.19600
C3175       C  0.98578578  0.12251438  0.51631542    -0.06200
C3176       C  0.00425156  0.15375518  0.51183971    -0.17400
C3177       C  0.52447863  0.16415794  0.49674598     0.10900
C3178       C  0.52806832  0.14248652  0.48639778    -0.06200
C3179       C  0.51065005  0.11117652  0.49136232    -0.17400
C3180       C  0.98848663  0.10057102  0.50584022     0.11000
S3181       S  0.54557766  0.20500259  0.49279939    -0.32400
S3182       S  0.96754550  0.06011857  0.51083326    -0.32400
H3183       H  0.93881694  0.05847504  0.51054474     0.29000
H3184       H  0.57429788  0.20675667  0.49436782     0.29000
H3185       H  0.00303237  0.17105646  0.51989454     0.19600
H3186       H  0.51282050  0.09397040  0.48380145     0.19600
Zn3187     Zn  0.95727417  0.58257277  0.59689154     1.49700
Zn3188     Zn  0.98072691  0.64069077  0.57228274     1.49400
Zn3189     Zn  0.91991497  0.57700651  0.56103934     1.49100
Zn3190     Zn  0.92032609  0.61588662  0.59439263     1.49500
O3191       O  0.94461939  0.60379941  0.58079101    -1.84300
O3192       O  0.00096776  0.59606500  0.59210237    -0.74900
O3193       O  0.98454623  0.63556558  0.54645277    -0.74700
O3194       O  0.91069974  0.53363365  0.56618866    -0.74200
O3195       O  0.52062285  0.64321661  0.58079158    -0.74900
O3196       O  0.93262496  0.53726126  0.59247673    -0.74500
O3197       O  0.94434159  0.59205679  0.53706498    -0.75100
O3198       O  0.87620268  0.58717804  0.58929095    -0.74500
O3199       O  0.97546185  0.67856237  0.57402524    -0.75200
O3200       O  0.87663188  0.57219477  0.56137595    -0.74600
O3201       O  0.92833927  0.65666451  0.58550501    -0.75100
O3202       O  0.92832654  0.61714717  0.62115140    -0.75000
O3203       O  0.95350651  0.59148793  0.62269858    -0.74800
C3204       C  0.52370117  0.62067316  0.58598375     0.77000
C3205       C  0.97036458  0.61620724  0.53412505     0.77500
C3206       C  0.91606074  0.52114595  0.57945593     0.76500
C3207       C  0.86211521  0.57412684  0.57492051     0.76800
C3208       C  0.95114876  0.67930427  0.57805649     0.78000
C3209       C  0.94139696  0.60551573  0.63029189     0.77000
Zn3210     Zn  0.55517190  0.63039034  0.43328433     1.49700
Zn3211     Zn  0.58810899  0.69928367  0.44289822     1.49400
Zn3212     Zn  0.60479402  0.67750982  0.40728626     1.49100
Zn3213     Zn  0.54114659  0.67440872  0.41021906     1.49500
O3214       O  0.57231590  0.67066489  0.42333281    -1.84300
O3215       O  0.54303192  0.62887205  0.45916284    -0.74900
O3216       O  0.63501160  0.72054718  0.44339122    -0.74700
O3217       O  0.61359985  0.64309894  0.40781340    -0.74200
O3218       O  0.56494371  0.67826690  0.46582959    -0.74900
O3219       O  0.58225134  0.61219237  0.42887591    -0.74500
O3220       O  0.64313618  0.71408719  0.41498946    -0.75100
O3221       O  0.54727216  0.67285128  0.38364511    -0.74500
O3222       O  0.57927497  0.73313828  0.43788406    -0.75200
O3223       O  0.59479520  0.68087894  0.38192607    -0.74600
O3224       O  0.54470175  0.71555254  0.41593870    -0.75100
O3225       O  0.99794441  0.63739287  0.41581903    -0.75000
O3226       O  0.01377688  0.60418992  0.42247399    -0.74800
C3227       C  0.54707993  0.65013944  0.46999854     0.77000
C3228       C  0.65311880  0.72702428  0.43005783     0.77500
C3229       C  0.60348808  0.61920268  0.41742371     0.76500
C3230       C  0.57014206  0.67634958  0.37452131     0.76800
C3231       C  0.56209725  0.73672772  0.42685060     0.78000
C3232       C  0.99271392  0.61013888  0.41855362     0.77000
Zn3233     Zn  0.57926402  0.90934938  0.40346031     1.49700
Zn3234     Zn  0.58581979  0.96031012  0.42984040     1.49400
Zn3235     Zn  0.62044599  0.92589814  0.43854689     1.49100
Zn3236     Zn  0.64210966  0.97288351  0.40523283     1.49500
O3237       O  0.60734983  0.94204907  0.41904819    -1.84300
O3238       O  0.53605166  0.90105734  0.40615821    -0.74900
O3239       O  0.59859636  0.97256620  0.45532844    -0.74700
O3240       O  0.59614079  0.87899021  0.43830606    -0.74200
O3241       O  0.54006198  0.93342823  0.42763267    -0.74900
O3242       O  0.57754125  0.87024141  0.41060408    -0.74500
O3243       O  0.62228254  0.94693705  0.46238409    -0.75100
O3244       O  0.68041871  0.97098018  0.41182391    -0.74500
O3245       O  0.59959461  0.50077888  0.41669651    -0.75200
O3246       O  0.66355537  0.93672143  0.43392217    -0.74600
O3247       O  0.64774648  0.51549352  0.40863554    -0.75100
O3248       O  0.63418506  0.96470897  0.37852573    -0.75000
O3249       O  0.59101936  0.91959220  0.37757104    -0.74800
C3250       C  0.52389291  0.91141434  0.41694429     0.77000
C3251       C  0.61366826  0.96617282  0.46643016     0.77500
C3252       C  0.58270879  0.86066513  0.42523754     0.76500
C3253       C  0.68459906  0.95454161  0.42324601     0.76800
C3254       C  0.62649497  0.52146970  0.41227392     0.78000
C3255       C  0.61290476  0.94259619  0.36966969     0.77000
Zn3256     Zn  0.70810577  0.58342632  0.59279507     1.49700
Zn3257     Zn  0.63726004  0.54700733  0.59462714     1.49400
Zn3258     Zn  0.66849124  0.58551955  0.55955987     1.49100
Zn3259     Zn  0.67108916  0.52395447  0.56882563     1.49500
O3260       O  0.67149207  0.56015327  0.57860044    -1.84300
O3261       O  0.69980133  0.57743221  0.61946661    -0.74900
O3262       O  0.61801425  0.57327571  0.59196985    -0.74700
O3263       O  0.70698561  0.62856815  0.56014801    -0.74200
O3264       O  0.64911058  0.54856732  0.62013034    -0.74900
O3265       O  0.72671492  0.62801610  0.58670711    -0.74500
O3266       O  0.63487793  0.59547494  0.56558077    -0.75100
O3267       O  0.66367601  0.52196284  0.54269411    -0.74500
O3268       O  0.60640918  0.50358729  0.58972596    -0.75200
O3269       O  0.65909470  0.56231393  0.53510997    -0.74600
O3270       O  0.63377726  0.98480826  0.57829209    -0.75100
O3271       O  0.71247247  0.52617405  0.57186245    -0.75000
O3272       O  0.73868347  0.57022798  0.58684273    -0.74800
C3273       C  0.67481752  0.56222718  0.62809475     0.77000
C3274       C  0.61864124  0.59084913  0.57956378     0.77500
C3275       C  0.72535317  0.64257101  0.57314251     0.76500
C3276       C  0.65839557  0.53713297  0.53107853     0.76800
C3277       C  0.60863703  0.98133487  0.58453700     0.78000
C3278       C  0.73734221  0.54722597  0.57881058     0.77000
Zn3279     Zn  0.83686433  0.87064814  0.40872767     1.49700
Zn3280     Zn  0.88133031  0.92831121  0.43202266     1.49400
Zn3281     Zn  0.83792476  0.93418767  0.40517703     1.49100
Zn3282     Zn  0.81255692  0.89602149  0.44096132     1.49500
O3283       O  0.84157458  0.90664920  0.42149392    -1.84300
O3284       O  0.87568033  0.86745580  0.41138221    -0.74900
O3285       O  0.90030464  0.97350586  0.42895086    -0.74700
O3286       O  0.83013519  0.91830605  0.38023360    -0.74200
O3287       O  0.90815795  0.91511260  0.42077374    -0.74900
O3288       O  0.83102481  0.87461455  0.38212668    -0.74500
O3289       O  0.87481899  0.97613208  0.40540378    -0.75100
O3290       O  0.79147431  0.92190751  0.44028428    -0.74500
O3291       O  0.88079719  0.91698966  0.45758408    -0.75200
O3292       O  0.80373621  0.94014133  0.41267358    -0.74600
O3293       O  0.83151510  0.89407547  0.46484164    -0.75100
O3294       O  0.77923636  0.85328786  0.43665018    -0.75000
O3295       O  0.79795508  0.83290570  0.41748494    -0.74800
C3296       C  0.90280357  0.88911215  0.41500721     0.77000
C3297       C  0.89648600  0.98877375  0.41668849     0.77500
C3298       C  0.82827648  0.89454047  0.37300573     0.76500
C3299       C  0.78834400  0.93589115  0.42689091     0.76800
C3300       C  0.85934261  0.90250332  0.46876703     0.78000
C3301       C  0.77647752  0.83057666  0.42763572     0.77000
Zn3302     Zn  0.92809521  0.82819469  0.59120571     1.49700
Zn3303     Zn  0.86597657  0.83051683  0.58910693     1.49400
Zn3304     Zn  0.92397325  0.87424524  0.56633510     1.49100
Zn3305     Zn  0.88705398  0.80531565  0.55578773     1.49500
O3306       O  0.90070991  0.83364645  0.57576855    -1.84300
O3307       O  0.91556269  0.82559592  0.61684041    -0.74900
O3308       O  0.86340150  0.86945771  0.58454809    -0.74700
O3309       O  0.96963299  0.89166207  0.56771513    -0.74200
O3310       O  0.87373588  0.82991052  0.61576403    -0.74900
O3311       O  0.97175664  0.86272637  0.58936772    -0.74500
O3312       O  0.91335827  0.90133398  0.57975565    -0.75100
O3313       O  0.88500885  0.82739702  0.53285859    -0.74500
O3314       O  0.82693782  0.78978994  0.58268611    -0.75200
O3315       O  0.91055729  0.87608105  0.54157710    -0.74600
O3316       O  0.84365284  0.77226264  0.56059992    -0.75100
O3317       O  0.91199330  0.78279586  0.55535687    -0.75000
O3318       O  0.92940291  0.79111822  0.58339086    -0.74800
C3319       C  0.89410472  0.82754582  0.62463886     0.77000
C3320       C  0.88652653  0.89656326  0.58293414     0.77500
C3321       C  0.98495993  0.88527297  0.57867058     0.76500
C3322       C  0.89428300  0.85586006  0.53003308     0.76800
C3323       C  0.82253171  0.76893525  0.57129221     0.78000
C3324       C  0.92484099  0.77720240  0.56849314     0.77000
Zn3325     Zn  0.53449513  0.74594299  0.07336528     1.49700
Zn3326     Zn  0.96600599  0.71613992  0.07242907     1.49400
Zn3327     Zn  0.49666973  0.68914441  0.09858881     1.49100
Zn3328     Zn  0.50126774  0.75434690  0.10746685     1.49500
O3329       O  0.49910311  0.72617349  0.08850102    -1.84300
O3330       O  0.52507223  0.73730576  0.04719922    -0.74900
O3331       O  0.93387412  0.67318769  0.07740041    -0.74700
O3332       O  0.53449806  0.68578695  0.09194114    -0.74200
O3333       O  0.97627445  0.71957083  0.04598867    -0.74900
O3334       O  0.56367091  0.73226727  0.08004311    -0.74500
O3335       O  0.95612364  0.65140746  0.09247707    -0.75100
O3336       O  0.50995155  0.74040330  0.13183815    -0.74500
O3337       O  0.94747264  0.74180961  0.07844444    -0.75200
O3338       O  0.50195986  0.69379595  0.12488431    -0.74600
O3339       O  0.96329913  0.75920446  0.10591293    -0.75100
O3340       O  0.53519244  0.79772683  0.10166662    -0.75000
O3341       O  0.55486096  0.79107606  0.07671958    -0.74800
C3342       C  0.00148114  0.72763562  0.03793060     0.77000
C3343       C  0.93263076  0.64996498  0.08497370     0.77500
C3344       C  0.56047527  0.70749739  0.08654234     0.76500
C3345       C  0.50880600  0.71516775  0.13614307     0.76800
C3346       C  0.94618624  0.75561872  0.09240747     0.78000
C3347       C  0.55356506  0.80866421  0.08848469     0.77000
Zn3348     Zn  0.58338622  0.70523520  0.26307777     1.49700
Zn3349     Zn  0.55144048  0.63499801  0.26291707     1.49400
Zn3350     Zn  0.52337002  0.66851456  0.24087206     1.49100
Zn3351     Zn  0.58616277  0.67179239  0.22781340     1.49500
O3352       O  0.56106807  0.66993651  0.24831321    -1.84300
O3353       O  0.57767923  0.69538647  0.28897760    -0.74900
O3354       O  0.50859347  0.60260016  0.25744277    -0.74700
O3355       O  0.52046042  0.70496976  0.25056338    -0.74200
O3356       O  0.55586567  0.64459429  0.28948275    -0.74900
O3357       O  0.56958354  0.73492769  0.25811873    -0.74500
O3358       O  0.98420495  0.62511419  0.24305571    -0.75100
O3359       O  0.56892206  0.68038916  0.20456864    -0.74500
O3360       O  0.57809606  0.61772608  0.25572344    -0.75200
O3361       O  0.52590374  0.67676486  0.21492695    -0.74600
O3362       O  0.59046226  0.63318194  0.22753114    -0.75100
O3363       O  0.63021292  0.70578795  0.23182355    -0.75000
O3364       O  0.62783526  0.72486656  0.25813812    -0.74800
C3365       C  0.56717602  0.67034782  0.29755736     0.77000
C3366       C  0.98363240  0.60096506  0.24895510     0.77500
C3367       C  0.54343152  0.73136629  0.25420639     0.76500
C3368       C  0.54445621  0.68185543  0.20217032     0.76800
C3369       C  0.59000992  0.61696485  0.24085427     0.78000
C3370       C  0.64324415  0.72365595  0.24504683     0.77000
Zn3371     Zn  0.82780214  0.86159337  0.23727192     1.49700
Zn3372     Zn  0.79086541  0.88300843  0.26149828     1.49400
Zn3373     Zn  0.86077771  0.91948719  0.26198652     1.49100
Zn3374     Zn  0.82617213  0.92293653  0.22736980     1.49500
O3375       O  0.82633038  0.89685009  0.24668681    -1.84300
O3376       O  0.79325637  0.82189244  0.24718748    -0.74900
O3377       O  0.80000161  0.88406870  0.28762141    -0.74700
O3378       O  0.89319530  0.90966571  0.25581922    -0.74200
O3379       O  0.76213655  0.83953253  0.25533439    -0.74900
O3380       O  0.87101314  0.86761456  0.23894614    -0.74500
O3381       O  0.85086582  0.91040014  0.28823040    -0.75100
O3382       O  0.86724992  0.96401193  0.22800902    -0.74500
O3383       O  0.77179126  0.90912332  0.25769634    -0.75200
O3384       O  0.87942399  0.96393703  0.25672703    -0.74600
O3385       O  0.79444899  0.93545465  0.23310708    -0.75100
O3386       O  0.81515768  0.89832732  0.20324278    -0.75000
O3387       O  0.81662663  0.85659544  0.21164944    -0.74800
C3388       C  0.76671336  0.81760174  0.25111411     0.77000
C3389       C  0.82514704  0.89566602  0.29619356     0.77500
C3390       C  0.89463844  0.88909561  0.24670360     0.76500
C3391       C  0.88358791  0.97758007  0.24179740     0.76800
C3392       C  0.77556517  0.92902118  0.24597587     0.78000
C3393       C  0.81185386  0.87177046  0.19982847     0.77000
Zn3394     Zn  0.74332731  0.74605307  0.10845617     1.49700
Zn3395     Zn  0.74576464  0.78073298  0.07200986     1.49400
Zn3396     Zn  0.80534539  0.80736065  0.09593088     1.49100
Zn3397     Zn  0.78158632  0.74609323  0.07404139     1.49500
O3398       O  0.76887283  0.76994631  0.08797209    -1.84300
O3399       O  0.69944913  0.73651385  0.10434132    -0.74900
O3400       O  0.75984235  0.82506786  0.07494051    -0.74700
O3401       O  0.79982985  0.81391423  0.12135268    -0.74200
O3402       O  0.70091762  0.75637286  0.07759807    -0.74900
O3403       O  0.75909379  0.77252032  0.13204598    -0.74500
O3404       O  0.80784932  0.84573194  0.08502793    -0.75100
O3405       O  0.82496356  0.75864970  0.08010371    -0.74500
O3406       O  0.75216293  0.77478833  0.04614955    -0.75200
O3407       O  0.84415199  0.80371307  0.09408439    -0.74600
O3408       O  0.77940819  0.75137633  0.04726985    -0.75100
O3409       O  0.75538206  0.70186584  0.08055643    -0.75000
O3410       O  0.73847778  0.70230416  0.10803611    -0.74800
C3411       C  0.68599654  0.74084933  0.09117442     0.77000
C3412       C  0.78541795  0.84835921  0.07918029     0.77500
C3413       C  0.78148935  0.80011667  0.13414674     0.76500
C3414       C  0.84718087  0.78179435  0.08767920     0.76800
C3415       C  0.76634136  0.76311359  0.03828956     0.78000
C3416       C  0.74149528  0.68781685  0.09475008     0.77000
Zn3417     Zn  0.74335658  0.52550833  0.10423545     1.49700
Zn3418     Zn  0.75676319  0.49969810  0.06840717     1.49400
Zn3419     Zn  0.70823608  0.95588033  0.09558831     1.49100
Zn3420     Zn  0.69376953  0.49958457  0.07218407     1.49500
O3421       O  0.72611878  0.49642040  0.08472347    -1.84300
O3422       O  0.79071922  0.54704207  0.10328062    -0.74900
O3423       O  0.76494910  0.96557097  0.07098406    -0.74700
O3424       O  0.69211649  0.95548659  0.12016077    -0.74200
O3425       O  0.79583331  0.53645946  0.07494831    -0.74900
O3426       O  0.72048931  0.50597169  0.12787848    -0.74500
O3427       O  0.73782915  0.93942954  0.09460996    -0.75100
O3428       O  0.65148445  0.95911358  0.07800129    -0.74500
O3429       O  0.74536157  0.50201697  0.04308348    -0.75200
O3430       O  0.67063425  0.92793128  0.08227514    -0.74600
O3431       O  0.70063384  0.50063523  0.04495933    -0.75100
O3432       O  0.69541534  0.54021521  0.07980743    -0.75000
O3433       O  0.73333415  0.55861367  0.09976238    -0.74800
C3434       C  0.80725139  0.55133625  0.08935528     0.77000
C3435       C  0.75772957  0.94456919  0.08255270     0.77500
C3436       C  0.69695320  0.97667761  0.13123812     0.76500
C3437       C  0.64806806  0.93223703  0.07978612     0.76800
C3438       C  0.72240932  0.50163420  0.03564308     0.78000
C3439       C  0.71388538  0.56161565  0.09039981     0.77000
Zn3440     Zn  0.63341121  0.97488866  0.25609436     1.49700
Zn3441     Zn  0.57073124  0.91223169  0.25941375     1.49400
Zn3442     Zn  0.58326463  0.95144752  0.22386596     1.49100
Zn3443     Zn  0.61788234  0.91579707  0.23166073     1.49500
O3444       O  0.60162521  0.93922386  0.24282572    -1.84300
O3445       O  0.62650694  0.96877940  0.28313495    -0.74900
O3446       O  0.53163139  0.91027709  0.25363325    -0.74700
O3447       O  0.59522821  0.49535592  0.22771916    -0.74200
O3448       O  0.58238479  0.92491831  0.28479689    -0.74900
O3449       O  0.63279993  0.51341533  0.24787775    -0.74500
O3450       O  0.53589286  0.92715789  0.22574491    -0.75100
O3451       O  0.62560780  0.92511511  0.20556457    -0.74500
O3452       O  0.56199518  0.86908051  0.25780874    -0.75200
O3453       O  0.60253908  0.95181172  0.19933930    -0.74600
O3454       O  0.59235244  0.86993322  0.23612394    -0.75100
O3455       O  0.65965305  0.93105352  0.24099092    -0.75000
O3456       O  0.67508919  0.97816591  0.25168963    -0.74800
C3457       C  0.60504680  0.94754758  0.29235720     0.77000
C3458       C  0.51975568  0.91457098  0.23972262     0.77500
C3459       C  0.61502624  0.51728370  0.23728004     0.76500
C3460       C  0.61958482  0.94079212  0.19469291     0.76800
C3461       C  0.57170619  0.85539488  0.24782805     0.78000
C3462       C  0.68051548  0.95695335  0.24680548     0.77000
Zn3463     Zn  0.92005653  0.86415410  0.73710571     1.49700
Zn3464     Zn  0.87981155  0.79387300  0.73549364     1.49400
Zn3465     Zn  0.91776992  0.82658713  0.77100073     1.49100
Zn3466     Zn  0.85834188  0.83087605  0.75937481     1.49500
O3467       O  0.89380486  0.82868853  0.75107588    -1.84300
O3468       O  0.91394372  0.85620675  0.71045575    -0.74900
O3469       O  0.90499968  0.77363120  0.73946622    -0.74700
O3470       O  0.96062701  0.86584831  0.77182759    -0.74200
O3471       O  0.88301554  0.80559508  0.70975085    -0.74900
O3472       O  0.96401682  0.88016948  0.74343907    -0.74500
O3473       O  0.92806696  0.79349235  0.76540356    -0.75100
O3474       O  0.85342580  0.82223288  0.78528881    -0.74500
O3475       O  0.83565606  0.76479650  0.73997713    -0.75200
O3476       O  0.89237689  0.81654569  0.79451727    -0.74600
O3477       O  0.81819143  0.79525882  0.74965757    -0.75100
O3478       O  0.86557785  0.87457694  0.75697109    -0.75000
O3479       O  0.91135607  0.89735895  0.74377837    -0.74800
C3480       C  0.89802674  0.83126159  0.70181986     0.77000
C3481       C  0.92301435  0.77579583  0.75204717     0.77500
C3482       C  0.97647586  0.88217002  0.75855688     0.76500
C3483       C  0.86715852  0.81629212  0.79749563     0.76800
C3484       C  0.81367472  0.76905982  0.74444600     0.78000
C3485       C  0.88931998  0.89869289  0.75121118     0.77000
Zn3486     Zn  0.78712687  0.75108776  0.92607579     1.49700
Zn3487     Zn  0.74916825  0.74759505  0.89098874     1.49400
Zn3488     Zn  0.75018482  0.78478383  0.92580761     1.49100
Zn3489     Zn  0.81018994  0.80965534  0.90198158     1.49500
O3490       O  0.77412489  0.77336655  0.91097700    -1.84300
O3491       O  0.76114273  0.70622962  0.92144778    -0.74900
O3492       O  0.70705304  0.74475734  0.89103288    -0.74700
O3493       O  0.75576477  0.78027869  0.95233922    -0.74200
O3494       O  0.73754970  0.70365980  0.89585834    -0.74900
O3495       O  0.78383231  0.75768192  0.95218246    -0.74500
O3496       O  0.70570107  0.75851861  0.91920334    -0.75100
O3497       O  0.80630607  0.84759876  0.90519219    -0.74500
O3498       O  0.77351338  0.76145123  0.86710103    -0.75200
O3499       O  0.76284878  0.82885971  0.92079615    -0.74600
O3500       O  0.81417435  0.80514303  0.87597426    -0.75100
O3501       O  0.84950647  0.81288774  0.91139810    -0.75000
O3502       O  0.83100284  0.76503879  0.92148205    -0.74800
C3503       C  0.74270117  0.69072937  0.90896141     0.77000
C3504       C  0.69218929  0.74598199  0.90459070     0.77500
C3505       C  0.77029216  0.76938280  0.96067139     0.76500
C3506       C  0.78528025  0.85084934  0.91259324     0.76800
C3507       C  0.79956946  0.78534329  0.86391594     0.78000
C3508       C  0.85334673  0.79098388  0.91684068     0.77000
Zn3509     Zn  0.70759558  0.58574757  0.76212841     1.49700
Zn3510     Zn  0.66026787  0.58797015  0.73727510     1.49400
Zn3511     Zn  0.66374410  0.52608361  0.74091154     1.49100
Zn3512     Zn  0.63919113  0.54887929  0.77293349     1.49500
O3513       O  0.66690209  0.56175129  0.75307207    -1.84300
O3514       O  0.72430045  0.63139106  0.75997867    -0.74900
O3515       O  0.65928535  0.57457817  0.71191659    -0.74700
O3516       O  0.70242335  0.52386847  0.74659726    -0.74200
O3517       O  0.69428070  0.63213261  0.73853278    -0.74900
O3518       O  0.73440216  0.57444727  0.74882887    -0.74500
O3519       O  0.66461630  0.53326905  0.71414695    -0.75100
O3520       O  0.60505393  0.50569767  0.76842017    -0.74500
O3521       O  0.62300922  0.58948907  0.74520582    -0.75200
O3522       O  0.62380171  0.98735006  0.74803442    -0.74600
O3523       O  0.61931680  0.57567347  0.77375667    -0.75100
O3524       O  0.66119436  0.54725608  0.79566198    -0.75000
O3525       O  0.70985727  0.57351722  0.78722337    -0.74800
C3526       C  0.71713118  0.64606356  0.74896420     0.77000
C3527       C  0.66279808  0.55349135  0.70476954     0.77500
C3528       C  0.72954870  0.54717179  0.74730891     0.76500
C3529       C  0.60220923  0.98375942  0.75857095     0.76800
C3530       C  0.61196513  0.58738520  0.76083596     0.78000
C3531       C  0.68961585  0.55716759  0.79872463     0.77000
Zn3532     Zn  0.70179117  0.50506452  0.92112707     1.49700
Zn3533     Zn  0.76438234  0.50540759  0.92619428     1.49400
Zn3534     Zn  0.72601056  0.97765503  0.89083553     1.49100
Zn3535     Zn  0.76125433  0.54806119  0.89772545     1.49500
O3536       O  0.73790706  0.50867798  0.90897571    -1.84300
O3537       O  0.70516659  0.00218024  0.94891889    -0.74900
O3538       O  0.76862541  0.96910675  0.92043127    -0.74700
O3539       O  0.68289020  0.94481392  0.89506198    -0.74200
O3540       O  0.74816520  0.00051018  0.95154363    -0.74900
O3541       O  0.66364284  0.96455960  0.91432050    -0.74500
O3542       O  0.75147548  0.95614605  0.89258883    -0.75100
O3543       O  0.75091808  0.54614322  0.87189456    -0.74500
O3544       O  0.80700873  0.54107618  0.92560297    -0.75200
O3545       O  0.72421459  0.99561255  0.86662691    -0.74600
O3546       O  0.80689622  0.56729328  0.90176078    -0.75100
O3547       O  0.74671603  0.57534831  0.90679195    -0.75000
O3548       O  0.69860046  0.54308713  0.91563544    -0.74800
C3549       C  0.72487629  0.99992047  0.95854932     0.77000
C3550       C  0.76472132  0.95318055  0.90642357     0.77500
C3551       C  0.66060995  0.94278229  0.90413638     0.76500
C3552       C  0.73541049  0.52410814  0.86118053     0.76800
C3553       C  0.82100112  0.56260732  0.91440163     0.78000
C3554       C  0.71999219  0.56982912  0.91111326     0.77000
Zn3555     Zn  0.53237167  0.75274928  0.89222381     1.49700
Zn3556     Zn  0.50842599  0.70499365  0.92517954     1.49400
Zn3557     Zn  0.50820644  0.76815769  0.92802201     1.49100
Zn3558     Zn  0.96436985  0.71881242  0.90226216     1.49500
O3559       O  0.50430257  0.73636988  0.91212971    -1.84300
O3560       O  0.56456413  0.74142810  0.89611095    -0.74900
O3561       O  0.50921447  0.71288315  0.95207026    -0.74700
O3562       O  0.54556699  0.80699103  0.92142431    -0.74200
O3563       O  0.54819939  0.70579743  0.91732753    -0.74900
O3564       O  0.55538838  0.80013028  0.89336367    -0.74500
O3565       O  0.50823870  0.75660377  0.95368957    -0.75100
O3566       O  0.94674837  0.74672950  0.90353917    -0.74500
O3567       O  0.97004598  0.66358133  0.92009013    -0.75200
O3568       O  0.97436894  0.77741101  0.92572098    -0.74600
O3569       O  0.93779643  0.68134860  0.91588239    -0.75100
O3570       O  0.96291912  0.70400307  0.87737757    -0.75000
O3571       O  0.51129773  0.73084395  0.86843299    -0.74800
C3572       C  0.56824528  0.72262300  0.90566586     0.77000
C3573       C  0.50777893  0.73364019  0.96118469     0.77500
C3574       C  0.56056116  0.81755504  0.90701599     0.76500
C3575       C  0.95237930  0.76811670  0.91462557     0.76800
C3576       C  0.94289314  0.65947735  0.91903726     0.78000
C3577       C  0.98305858  0.71021811  0.86540486     0.77000
Zn3578     Zn  0.94727521  0.58584141  0.77633860     1.49700
Zn3579     Zn  0.97158372  0.63506363  0.74403020     1.49400
Zn3580     Zn  0.90848112  0.57227735  0.74045187     1.49100
Zn3581     Zn  0.91277321  0.62019147  0.76728593     1.49500
O3582       O  0.93567020  0.60332205  0.75679628    -1.84300
O3583       O  0.49066772  0.59607308  0.77172109    -0.74900
O3584       O  0.96594431  0.62771016  0.71699744    -0.74700
O3585       O  0.90801641  0.53387395  0.74662120    -0.74200
O3586       O  0.51053566  0.63328333  0.75152642    -0.74900
O3587       O  0.92250699  0.53821331  0.77516038    -0.74500
O3588       O  0.92117880  0.58416801  0.71499757    -0.75100
O3589       O  0.86690043  0.59287542  0.76486700    -0.74500
O3590       O  0.97430435  0.67659856  0.74866765    -0.75200
O3591       O  0.86502405  0.56294801  0.74253250    -0.74600
O3592       O  0.92513988  0.65957049  0.75557310    -0.75100
O3593       O  0.92598262  0.63337677  0.79242881    -0.75000
O3594       O  0.95063284  0.60884474  0.80005490    -0.74800
C3595       C  0.51317203  0.61481179  0.76213843     0.77000
C3596       C  0.94435776  0.60667030  0.70770014     0.77500
C3597       C  0.91183279  0.52227743  0.76083292     0.76500
C3598       C  0.85174377  0.57195245  0.75337146     0.76800
C3599       C  0.95189418  0.68120125  0.75168634     0.78000
C3600       C  0.94234168  0.62861849  0.80345722     0.77000
C3601       C  0.97332862  0.69154403  0.84860101    -0.06200
C3602       C  0.49359534  0.68293431  0.84084593    -0.17400
C3603       C  0.98369793  0.66212699  0.82620817     0.10900
C3604       C  0.95312962  0.64846121  0.81978424    -0.06200
C3605       C  0.93354048  0.65770245  0.82749476    -0.17400
C3606       C  0.94325330  0.67914907  0.84157105     0.11000
S3607       S  0.51255008  0.65503057  0.81644243    -0.32400
S3608       S  0.91739751  0.69162271  0.84974709    -0.32400
H3609       H  0.89247076  0.67319602  0.83847165     0.29000
H3610       H  0.50511907  0.65809675  0.79872869     0.29000
H3611       H  0.51650105  0.69179200  0.84621499     0.19600
H3612       H  0.91056330  0.64841378  0.82219150     0.19600
C3613       C  0.58442223  0.85082137  0.90629936    -0.06200
C3614       C  0.59704848  0.86416902  0.88966966    -0.17400
C3615       C  0.62024661  0.89501364  0.88829179     0.10900
C3616       C  0.63143240  0.91324731  0.90386708    -0.06200
C3617       C  0.61766039  0.90071806  0.92027482    -0.17400
C3618       C  0.59496646  0.86985025  0.92180271     0.11000
S3619       S  0.63453322  0.90982429  0.86627884    -0.32400
S3620       S  0.58285021  0.85633206  0.94427478    -0.32400
H3621       H  0.59015935  0.83278237  0.94279428     0.29000
H3622       H  0.64263689  0.94037511  0.87020210     0.29000
H3623       H  0.58898902  0.85048347  0.87759353     0.19600
H3624       H  0.62640450  0.91444708  0.93231489     0.19600
C3625       C  0.85418845  0.58297546  0.91654911    -0.06200
C3626       C  0.86493919  0.59845752  0.93286236    -0.17400
C3627       C  0.89553683  0.62154668  0.93486337     0.10900
C3628       C  0.91588122  0.62890291  0.92036786    -0.06200
C3629       C  0.90574830  0.61162785  0.90458415    -0.17400
C3630       C  0.87507458  0.58866405  0.90252312     0.11000
S3631       S  0.90665223  0.64288644  0.95555103    -0.32400
S3632       S  0.86374511  0.56838201  0.88151223    -0.32400
H3633       H  0.83983630  0.54075281  0.88851433     0.29000
H3634       H  0.93827934  0.65364809  0.95392660     0.29000
H3635       H  0.84900624  0.59384645  0.94374790     0.19600
H3636       H  0.92123460  0.61765266  0.89331083     0.19600
C3637       C  0.58985404  0.59860269  0.76351395    -0.06200
C3638       C  0.58945867  0.61915935  0.75087089    -0.17400
C3639       C  0.56597675  0.62644912  0.75051019     0.10900
C3640       C  0.54198197  0.61315835  0.76322287    -0.06200
C3641       C  0.54403723  0.59483809  0.77681478    -0.17400
C3642       C  0.56748490  0.58759438  0.77717977     0.11000
S3643       S  0.56742247  0.65143754  0.73286651    -0.32400
S3644       S  0.56589932  0.56239086  0.79475374    -0.32400
H3645       H  0.59533356  0.58363599  0.80120220     0.29000
H3646       H  0.04015397  0.62976209  0.72528574     0.29000
H3647       H  0.60695662  0.62873020  0.74060612     0.19600
H3648       H  0.52656663  0.58504232  0.78708085     0.19600
C3649       C  0.81826048  0.55880627  0.75189536    -0.06200
C3650       C  0.80563596  0.55629721  0.73480434    -0.17400
C3651       C  0.77511955  0.54907625  0.73265060     0.10900
C3652       C  0.75663742  0.54359814  0.74786597    -0.06200
C3653       C  0.76853481  0.54379201  0.76482616    -0.17400
C3654       C  0.79907935  0.55125828  0.76701870     0.11000
S3655       S  0.76198878  0.55019769  0.71039051    -0.32400
S3656       S  0.81240247  0.55185185  0.78945238    -0.32400
H3657       H  0.83377905  0.54282601  0.78466517     0.29000
H3658       H  0.73050757  0.53125422  0.71392992     0.29000
H3659       H  0.82016229  0.56195433  0.72310533     0.19600
H3660       H  0.75449980  0.54013058  0.77657138     0.19600
C3661       C  0.70011254  0.54867279  0.81534447    -0.06200
C3662       C  0.73086711  0.56750355  0.82072296    -0.17400
C3663       C  0.74368374  0.55915680  0.83473798     0.10900
C3664       C  0.72553667  0.53120994  0.84397183    -0.06200
C3665       C  0.69498397  0.51210082  0.83847867    -0.17400
C3666       C  0.68204856  0.52056827  0.82454095     0.11000
S3667       S  0.78362422  0.58494191  0.83983130    -0.32400
S3668       S  0.64051741  0.99511825  0.82091394    -0.32400
H3669       H  0.63312309  0.51541238  0.82256240     0.29000
H3670       H  0.78976716  0.56170180  0.84515050     0.29000
H3671       H  0.74537156  0.58885943  0.81375046     0.19600
H3672       H  0.67866947  0.99124269  0.84710614     0.19600
C3673       C  0.88401403  0.79443408  0.91697221    -0.06200
C3674       C  0.89717472  0.79452330  0.90047101    -0.17400
C3675       C  0.92116238  0.78813175  0.89938035     0.10900
C3676       C  0.93211438  0.78139335  0.91512633    -0.06200
C3677       C  0.92078825  0.78411862  0.93174600    -0.17400
C3678       C  0.89674563  0.79042885  0.93280967     0.11000
S3679       S  0.93602918  0.78778935  0.87751851    -0.32400
S3680       S  0.88182414  0.79104199  0.95461692    -0.32400
H3681       H  0.86939472  0.80963799  0.94981190     0.29000
H3682       H  0.96605952  0.79723679  0.88334474     0.29000
H3683       H  0.88736896  0.79753589  0.88827449     0.19600
H3684       H  0.92932961  0.77936163  0.94391140     0.19600
C3685       C  0.65855148  0.73343054  0.90351200    -0.06200
C3686       C  0.64617890  0.73908485  0.88820927    -0.17400
C3687       C  0.61574667  0.73309068  0.88793573     0.10900
C3688       C  0.59746357  0.72209143  0.90361232    -0.06200
C3689       C  0.60896476  0.71346798  0.91822209    -0.17400
C3690       C  0.63894785  0.71838106  0.91816487     0.11000
S3691       S  0.60079560  0.73947840  0.86739173    -0.32400
S3692       S  0.65079474  0.70468381  0.93711394    -0.32400
H3693       H  0.67118490  0.69862294  0.92745098     0.29000
H3694       H  0.62704406  0.74843933  0.85683369     0.29000
H3695       H  0.66082905  0.74949285  0.87672462     0.19600
H3696       H  0.59494412  0.70378769  0.93003002     0.19600
C3697       C  0.71451658  0.59571448  0.91002571    -0.06200
C3698       C  0.71362629  0.60999317  0.92587061    -0.17400
C3699       C  0.71981291  0.64040756  0.92572570     0.10900
C3700       C  0.72790427  0.65697475  0.90945481    -0.06200
C3701       C  0.72515300  0.64138536  0.89342712    -0.17400
C3702       C  0.71841908  0.61087695  0.89355269     0.11000
S3703       S  0.71807291  0.65705872  0.94674160    -0.32400
S3704       S  0.71800861  0.59340169  0.87239297    -0.32400
H3705       H  0.69976402  0.56277888  0.87808594     0.29000
H3706       H  0.70915449  0.67710651  0.93928607     0.29000
H3707       H  0.71026201  0.59822187  0.93850362     0.19600
H3708       H  0.73046034  0.65359871  0.88083358     0.19600
C3709       C  0.78587944  0.88036513  0.91118820    -0.06200
C3710       C  0.78588007  0.89212158  0.89418481    -0.17400
C3711       C  0.78062517  0.91687194  0.89203805     0.10900
C3712       C  0.77451275  0.92975595  0.90722696    -0.06200
C3713       C  0.77645918  0.91894098  0.92425178    -0.17400
C3714       C  0.78233492  0.89481472  0.92636808     0.11000
S3715       S  0.78229396  0.93089299  0.86970884    -0.32400
S3716       S  0.78475856  0.88335575  0.94883263    -0.32400
H3717       H  0.80521749  0.87279379  0.94481596     0.29000
H3718       H  0.79753077  0.96207636  0.87476312     0.29000
H3719       H  0.78899433  0.88130380  0.88245176     0.19600
H3720       H  0.77255322  0.92877188  0.93617217     0.19600
C3721       C  0.57219569  0.95428155  0.75920656    -0.06200
C3722       C  0.55430574  0.94750345  0.77483938    -0.17400
C3723       C  0.52369484  0.92348520  0.77543562     0.10900
C3724       C  0.51047138  0.90466208  0.76026774    -0.06200
C3725       C  0.52903737  0.90989495  0.74512538    -0.17400
C3726       C  0.55929193  0.93454196  0.74429219     0.11000
S3727       S  0.50209833  0.92011228  0.79532631    -0.32400
S3728       S  0.57882594  0.94093562  0.72322671    -0.32400
H3729       H  0.58618670  0.97185056  0.72204586     0.29000
H3730       H  0.97662245  0.91833663  0.78624053     0.29000
H3731       H  0.56368275  0.96214947  0.78647567     0.19600
H3732       H  0.51930605  0.89561395  0.73337889     0.19600
C3733       C  0.78277632  0.74186404  0.74471438    -0.06200
C3734       C  0.77025749  0.72944255  0.76144873    -0.17400
C3735       C  0.74718017  0.69865215  0.76314601     0.10900
C3736       C  0.73641456  0.67982438  0.74778567    -0.06200
C3737       C  0.74674604  0.69315347  0.73089539    -0.17400
C3738       C  0.76989721  0.72392936  0.72922030     0.11000
S3739       S  0.73329086  0.68442950  0.78528924    -0.32400
S3740       S  0.78364599  0.73850791  0.70709833    -0.32400
H3741       H  0.79597473  0.76974990  0.71146707     0.29000
H3742       H  0.70348526  0.66226238  0.77987981     0.29000
H3743       H  0.78010997  0.74310119  0.77339989     0.19600
H3744       H  0.73820060  0.67903330  0.71899792     0.19600
C3745       C  0.90595740  0.99059234  0.75962447    -0.06200
C3746       C  0.91262899  0.98177664  0.74316545    -0.17400
C3747       C  0.90579348  0.95174543  0.73984410     0.10900
C3748       C  0.89244392  0.92939334  0.75340459    -0.06200
C3749       C  0.88565870  0.93790761  0.76997121    -0.17400
C3750       C  0.89209734  0.96820193  0.77319343     0.11000
S3751       S  0.91434923  0.94350914  0.71779105    -0.32400
S3752       S  0.88161044  0.97653206  0.79459572    -0.32400
H3753       H  0.86978256  0.49536624  0.78712423     0.29000
H3754       H  0.88889933  0.91354750  0.71689540     0.29000
H3755       H  0.92323445  0.99855014  0.73257048     0.19600
H3756       H  0.87579972  0.92102501  0.78056128     0.19600
C3757       C  0.93785643  0.75677565  0.75146097    -0.06200
C3758       C  0.94302683  0.74617981  0.76768188    -0.17400
C3759       C  0.95218105  0.72418659  0.76800526     0.10900
C3760       C  0.95593775  0.71209970  0.75180317    -0.06200
C3761       C  0.95370646  0.72467885  0.73559764    -0.17400
C3762       C  0.94529833  0.74737064  0.73525929     0.11000
S3763       S  0.95575696  0.71017209  0.78953755    -0.32400
S3764       S  0.94404304  0.76289106  0.71378003    -0.32400
H3765       H  0.95392669  0.79276415  0.72019269     0.29000
H3766       H  0.97537745  0.69943405  0.78387738     0.29000
H3767       H  0.93823842  0.75371420  0.78021743     0.19600
H3768       H  0.95660737  0.71544885  0.72314126     0.19600
C3769       C  0.81469837  0.79115400  0.84619717    -0.06200
C3770       C  0.82686708  0.82082937  0.83905042    -0.17400
C3771       C  0.84547363  0.82996571  0.82384026     0.10900
C3772       C  0.85249140  0.80912985  0.81531645    -0.06200
C3773       C  0.84026040  0.77930962  0.82231436    -0.17400
C3774       C  0.82169162  0.77019162  0.83771101     0.11000
S3775       S  0.85962611  0.86871871  0.81594424    -0.32400
S3776       S  0.80830654  0.73190591  0.84605017    -0.32400
H3777       H  0.81202262  0.74009638  0.86421736     0.29000
H3778       H  0.88697146  0.87251322  0.80850472     0.29000
H3779       H  0.82222440  0.83733640  0.84560044     0.19600
H3780       H  0.84476794  0.76286568  0.81557992     0.19600
C3781       C  0.72118825  0.50102336  0.01573314    -0.06200
C3782       C  0.73489660  0.98603681  0.00743235    -0.17400
C3783       C  0.73517405  0.98410631  0.98883216     0.10900
C3784       C  0.72186188  0.49858133  0.97778198    -0.06200
C3785       C  0.70732914  0.51254335  0.98664634    -0.17400
C3786       C  0.70701578  0.51408019  0.00540015     0.11000
S3787       S  0.75251153  0.96321273  0.97957140    -0.32400
S3788       S  0.69002647  0.53477796  0.01518350    -0.32400
H3789       H  0.71388806  0.55036325  0.02759984     0.29000
H3790       H  0.72996504  0.94842350  0.96629325     0.29000
H3791       H  0.74583742  0.97594915  0.01515816     0.19600
H3792       H  0.69731465  0.52355553  0.97893075     0.19600
C3793       C  0.67668104  0.96818878  0.14740379    -0.06200
C3794       C  0.66191665  0.93745312  0.15333665    -0.17400
C3795       C  0.64117999  0.92731284  0.16767462     0.10900
C3796       C  0.63531295  0.94834686  0.17699839    -0.06200
C3797       C  0.64909462  0.97877279  0.17075892    -0.17400
C3798       C  0.66903428  0.98870492  0.15597396     0.11000
S3799       S  0.62223493  0.88692307  0.17307259    -0.32400
S3800       S  0.68926389  0.53067342  0.14996789    -0.32400
H3801       H  0.68187518  0.52399207  0.13177119     0.29000
H3802       H  0.59497817  0.88515687  0.17923232     0.29000
H3803       H  0.66625564  0.92089797  0.14661195     0.19600
H3804       H  0.64475327  0.99518846  0.17766150     0.19600
C3805       C  0.76800777  0.76421792  0.01841597    -0.06200
C3806       C  0.76594181  0.78790311  0.00968692    -0.17400
C3807       C  0.76778695  0.79092774  0.99108675     0.10900
C3808       C  0.77090885  0.76927518  0.98055140    -0.06200
C3809       C  0.77369402  0.74597692  0.98926628    -0.17400
C3810       C  0.77202561  0.74302809  0.00791008     0.11000
S3811       S  0.76765387  0.82392804  0.98184372    -0.32400
S3812       S  0.77348127  0.71070427  0.01720316    -0.32400
H3813       H  0.74872727  0.70246930  0.02893991     0.29000
H3814       H  0.79101768  0.83025053  0.96938475     0.29000
H3815       H  0.76363383  0.80484925  0.01746099     0.19600
H3816       H  0.77606909  0.72910528  0.98145805     0.19600
C3817       C  0.78747668  0.87858941  0.07830178    -0.06200
C3818       C  0.79300879  0.89537819  0.09421773    -0.17400
C3819       C  0.78523624  0.91847584  0.09577098     0.10900
C3820       C  0.77150609  0.92474566  0.08114481    -0.06200
C3821       C  0.76882785  0.91002382  0.06476811    -0.17400
C3822       C  0.77664348  0.88707177  0.06319538     0.11000
S3823       S  0.79268072  0.93856703  0.11677408    -0.32400
S3824       S  0.77060397  0.86814104  0.04185247    -0.32400
H3825       H  0.79220647  0.85851435  0.04443922     0.29000
H3826       H  0.79652022  0.96612000  0.10955769     0.29000
H3827       H  0.80141281  0.88905462  0.10586664     0.19600
H3828       H  0.75900544  0.91525537  0.05334580     0.19600
C3829       C  0.72898377  0.65387578  0.09508175    -0.06200
C3830       C  0.71822597  0.63762780  0.07886760    -0.17400
C3831       C  0.71133939  0.60702680  0.07707446     0.10900
C3832       C  0.71435167  0.59146494  0.09194991    -0.06200
C3833       C  0.72252953  0.60686938  0.10853739    -0.17400
C3834       C  0.73018417  0.63776295  0.11022377     0.11000
S3835       S  0.70188877  0.59041873  0.05505966    -0.32400
S3836       S  0.74390730  0.65584443  0.13163570    -0.32400
H3837       H  0.76968925  0.68201005  0.12464298     0.29000
H3838       H  0.72399505  0.58109001  0.05538057     0.29000
H3839       H  0.71676092  0.64944145  0.06712953     0.19600
H3840       H  0.72475971  0.59526480  0.12014900     0.19600
C3841       C  0.92498229  0.89150757  0.24492754    -0.06200
C3842       C  0.93601631  0.89022596  0.22789172    -0.17400
C3843       C  0.96665642  0.89759150  0.22534948     0.10900
C3844       C  0.98696817  0.90705083  0.24011802    -0.06200
C3845       C  0.97539785  0.90755433  0.25714592    -0.17400
C3846       C  0.94491005  0.89961512  0.25971679     0.11000
S3847       S  0.97807446  0.89395846  0.20311855    -0.32400
S3848       S  0.93286310  0.90019513  0.28233195    -0.32400
H3849       H  0.90278085  0.87558631  0.27989214     0.29000
H3850       H  0.49513265  0.88162285  0.20802212     0.29000
H3851       H  0.92091159  0.88420635  0.21643316     0.19600
H3852       H  0.99031733  0.91442471  0.26873054     0.19600
C3853       C  0.71161003  0.96152672  0.24709019    -0.06200
C3854       C  0.72294768  0.95729056  0.26325409    -0.17400
C3855       C  0.74566341  0.94884603  0.26342800     0.10900
C3856       C  0.75671728  0.94407416  0.24700188    -0.06200
C3857       C  0.74766596  0.95173473  0.23100196    -0.17400
C3858       C  0.72532896  0.96044528  0.23089873     0.11000
S3859       S  0.75964374  0.94361089  0.28463993    -0.32400
S3860       S  0.71286039  0.96683749  0.20952755    -0.32400
H3861       H  0.70113418  0.98517176  0.21605990     0.29000
H3862       H  0.74385443  0.95399378  0.29550356     0.29000
H3863       H  0.71223196  0.95812454  0.27562956     0.19600
H3864       H  0.75652252  0.94900003  0.21835986     0.19600
C3865       C  0.80192780  0.85682516  0.18204938    -0.06200
C3866       C  0.77405141  0.82872213  0.18083070    -0.17400
C3867       C  0.76614518  0.80984584  0.16554335     0.10900
C3868       C  0.78722918  0.81827022  0.15119147    -0.06200
C3869       C  0.81505466  0.84668188  0.15258581    -0.17400
C3870       C  0.82232763  0.86592734  0.16753327     0.11000
S3871       S  0.72890054  0.77568132  0.16527924    -0.32400
S3872       S  0.85920107  0.90066176  0.16792010    -0.32400
H3873       H  0.84852035  0.91872402  0.17607835     0.29000
H3874       H  0.72096593  0.78234065  0.14852268     0.29000
H3875       H  0.75832487  0.82119029  0.19207545     0.19600
H3876       H  0.83182332  0.85423432  0.14189638     0.19600
C3877       C  0.60256119  0.59584807  0.23912592    -0.06200
C3878       C  0.59928636  0.58066889  0.22284792    -0.17400
C3879       C  0.60604068  0.55685191  0.22140411     0.10900
C3880       C  0.61549810  0.54711566  0.23671462    -0.06200
C3881       C  0.62128928  0.56405941  0.25256117    -0.17400
C3882       C  0.61545886  0.58850222  0.25384852     0.11000
S3883       S  0.60190953  0.53977298  0.19963818    -0.32400
S3884       S  0.62501163  0.60930621  0.27469864    -0.32400
H3885       H  0.63398013  0.63803150  0.26685088     0.29000
H3886       H  0.62580020  0.53321841  0.20200014     0.29000
H3887       H  0.59038614  0.58663370  0.21128754     0.19600
H3888       H  0.62924110  0.55747141  0.26429385     0.19600
C3889       C  0.55904543  0.82206340  0.25011709    -0.06200
C3890       C  0.55002497  0.80313675  0.23495497    -0.17400
C3891       C  0.54069247  0.77188356  0.23630275     0.10900
C3892       C  0.54131176  0.75940814  0.25308923    -0.06200
C3893       C  0.54917904  0.77806259  0.26833134    -0.17400
C3894       C  0.55750375  0.80903223  0.26707759     0.11000
S3895       S  0.53184557  0.75000150  0.21590295    -0.32400
S3896       S  0.56982506  0.83167893  0.28721976    -0.32400
H3897       H  0.54611789  0.83877806  0.28649409     0.29000
H3898       H  0.50669545  0.72353197  0.22306454     0.29000
H3899       H  0.55094547  0.81292965  0.22191703     0.19600
H3900       H  0.55062313  0.76888192  0.28116664     0.19600
C3901       C  0.90988334  0.50832485  0.23905607    -0.06200
C3902       C  0.90367137  0.53259567  0.23817562    -0.17400
C3903       C  0.92683646  0.56313109  0.24150254     0.10900
C3904       C  0.95703119  0.56961433  0.24557898    -0.06200
C3905       C  0.96306686  0.54508269  0.24562890    -0.17400
C3906       C  0.94012447  0.51489390  0.24237389     0.11000
S3907       S  0.91579095  0.59211654  0.24154715    -0.32400
S3908       S  0.94829570  0.98514228  0.24939894    -0.32400
H3909       H  0.92817311  0.96545576  0.23617118     0.29000
H3910       H  0.93184318  0.60621480  0.25735456     0.29000
H3911       H  0.88029530  0.52753303  0.23602696     0.19600
H3912       H  0.98606756  0.54930358  0.24816131     0.19600
C3913       C  0.73962251  0.78710167  0.24957261    -0.06200
C3914       C  0.72652388  0.77817933  0.23255174    -0.17400
C3915       C  0.69526193  0.75702317  0.23045518     0.10900
C3916       C  0.67697508  0.74343139  0.24576481    -0.06200
C3917       C  0.69106195  0.75034954  0.26269006    -0.17400
C3918       C  0.72205375  0.77215194  0.26474569     0.11000
S3919       S  0.67965079  0.75169680  0.20822956    -0.32400
S3920       S  0.73742870  0.78179784  0.28709086    -0.32400
H3921       H  0.76836095  0.79400894  0.28217897     0.29000
H3922       H  0.65488520  0.75559737  0.21331778     0.29000
H3923       H  0.73995796  0.79034831  0.22088224     0.19600
H3924       H  0.67750407  0.73961107  0.27456183     0.19600
C3925       C  0.50082020  0.72643590  0.01869582    -0.06200
C3926       C  0.98446710  0.73614686  0.00849691    -0.17400
C3927       C  0.98576352  0.73793492  0.98984055     0.10900
C3928       C  0.50450901  0.73064117  0.98088991    -0.06200
C3929       C  0.52195965  0.72084024  0.99051414    -0.17400
C3930       C  0.52017037  0.71844076  0.00918597     0.11000
S3931       S  0.96076187  0.74896591  0.97893044    -0.32400
S3932       S  0.54241899  0.70403018  0.01993416    -0.32400
H3933       H  0.52050950  0.68749250  0.03321301     0.29000
H3934       H  0.95317830  0.72824174  0.96459993     0.29000
H3935       H  0.96982895  0.74272024  0.01556170     0.19600
H3936       H  0.53721695  0.71510150  0.98344083     0.19600
C3937       C  0.58865213  0.70587271  0.08861819    -0.06200
C3938       C  0.60364577  0.71469858  0.10519364    -0.17400
C3939       C  0.63527950  0.72578525  0.10662399     0.10900
C3940       C  0.65221617  0.72725289  0.09119803    -0.06200
C3941       C  0.63658401  0.71630830  0.07490941    -0.17400
C3942       C  0.60515727  0.70566636  0.07349557     0.11000
S3943       S  0.65301538  0.74097765  0.12797519    -0.32400
S3944       S  0.58768472  0.69375650  0.05180248    -0.32400
H3945       H  0.55744678  0.67543555  0.05802348     0.29000
H3946       H  0.67833761  0.76746287  0.12087979     0.29000
H3947       H  0.59130126  0.71587343  0.11675386     0.19600
H3948       H  0.64910606  0.71673395  0.06303656     0.19600
C3949       C  0.92395138  0.76722258  0.09209844    -0.06200
C3950       C  0.91243291  0.76912290  0.07526875    -0.17400
C3951       C  0.88923343  0.77641206  0.07347725     0.10900
C3952       C  0.87676831  0.78231171  0.08879201    -0.06200
C3953       C  0.88961427  0.78294237  0.10556286    -0.17400
C3954       C  0.91279868  0.77518531  0.10742625     0.11000
S3955       S  0.87575663  0.77681685  0.05117907    -0.32400
S3956       S  0.92529613  0.77377545  0.12974042    -0.32400
H3957       H  0.91968829  0.74351013  0.12789085     0.29000
H3958       H  0.86661113  0.79854919  0.05477825     0.29000
H3959       H  0.92107134  0.76421525  0.06319431     0.19600
H3960       H  0.87997971  0.78724971  0.11742030     0.19600
C3961       C  0.61763478  0.90474693  0.08018067    -0.06200
C3962       C  0.60376250  0.89501534  0.09696572    -0.17400
C3963       C  0.58235202  0.86405635  0.10022379     0.10900
C3964       C  0.57380734  0.84236758  0.08615369    -0.06200
C3965       C  0.58593897  0.85302833  0.06898265    -0.17400
C3966       C  0.60786848  0.88372093  0.06593308     0.11000
S3967       S  0.56977182  0.85367994  0.12296915    -0.32400
S3968       S  0.62465880  0.89414018  0.04395822    -0.32400
H3969       H  0.63478966  0.92570605  0.04548148     0.29000
H3970       H  0.57765726  0.83048095  0.12362594     0.29000
H3971       H  0.61201737  0.91101875  0.10808012     0.19600
H3972       H  0.57927219  0.83712449  0.05787179     0.19600
C3973       C  0.90250596  0.62144519  0.08542788    -0.06200
C3974       C  0.89140738  0.60574972  0.10169049    -0.17400
C3975       C  0.86063002  0.58232723  0.10352309     0.10900
C3976       C  0.84033004  0.57485112  0.08888772    -0.06200
C3977       C  0.85197888  0.58992251  0.07252355    -0.17400
C3978       C  0.88259994  0.61260403  0.07056940     0.11000
S3979       S  0.84893231  0.56270439  0.12464340    -0.32400
S3980       S  0.89469708  0.62950800  0.04868649    -0.32400
H3981       H  0.92502665  0.63537915  0.05028801     0.29000
H3982       H  0.82971979  0.53349523  0.11715012     0.29000
H3983       H  0.90651285  0.61241638  0.11318431     0.19600
H3984       H  0.83695604  0.58422886  0.06103870     0.19600
C3985       C  0.51730007  0.71017193  0.15420674    -0.06200
C3986       C  0.54862221  0.72246195  0.15809064    -0.17400
C3987       C  0.55840699  0.71261096  0.17299631     0.10900
C3988       C  0.53645998  0.69023519  0.18464252    -0.06200
C3989       C  0.50507309  0.67823864  0.18070537    -0.17400
C3990       C  0.49536343  0.68773723  0.16570213     0.11000
S3991       S  0.59907635  0.73000099  0.17662509    -0.32400
S3992       S  0.95770983  0.65203363  0.15436072    -0.32400
H3993       H  0.95208011  0.67418304  0.14654086     0.29000
H3994       H  0.59845860  0.70170407  0.17593690     0.29000
H3995       H  0.56565522  0.73888501  0.14896996     0.19600
H3996       H  0.48776739  0.66124927  0.18947016     0.19600
C3997       C  0.89400659  0.82826525  0.64445045    -0.06200
C3998       C  0.92251441  0.84249619  0.65330712    -0.17400
C3999       C  0.92445124  0.84401889  0.67193879     0.10900
C4000       C  0.89732837  0.83159323  0.68216229    -0.06200
C4001       C  0.86879528  0.81750448  0.67343627    -0.17400
C4002       C  0.86679610  0.81554372  0.65476311     0.11000
S4003       S  0.96214195  0.86081893  0.68185634    -0.32400
S4004       S  0.82891749  0.79519904  0.64509529    -0.32400
H4005       H  0.83653706  0.77977415  0.63217308     0.29000
H4006       H  0.95337725  0.83995349  0.69615393     0.29000
H4007       H  0.94359876  0.85234250  0.64564694     0.19600
H4008       H  0.84787013  0.80748185  0.68126027     0.19600
C4009       C  0.82402438  0.89089952  0.35347195    -0.06200
C4010       C  0.84247072  0.88249431  0.34370401    -0.17400
C4011       C  0.84263830  0.88292625  0.32501853     0.10900
C4012       C  0.82420517  0.89228910  0.31578781    -0.06200
C4013       C  0.80458556  0.89916337  0.32553093    -0.17400
C4014       C  0.80416215  0.89843492  0.34420329     0.11000
S4015       S  0.86652606  0.87087491  0.31380319    -0.32400
S4016       S  0.77761523  0.90713106  0.35535811    -0.32400
H4017       H  0.77196596  0.88720299  0.36985676     0.29000
H4018       H  0.84706292  0.85771032  0.29897769     0.29000
H4019       H  0.85754110  0.87637299  0.35067862     0.19600
H4020       H  0.78986831  0.90573630  0.31854315     0.19600
C4021       C  0.88521931  0.86660154  0.51370050    -0.06200
C4022       C  0.90424911  0.89727789  0.50817077    -0.17400
C4023       C  0.89543983  0.91042192  0.49454607     0.10900
C4024       C  0.86695379  0.89261896  0.48578167    -0.06200
C4025       C  0.84752379  0.86236042  0.49157150    -0.17400
C4026       C  0.85633944  0.84920525  0.50518943     0.11000
S4027       S  0.92113084  0.95041290  0.48944917    -0.32400
S4028       S  0.82899511  0.81052700  0.51141515    -0.32400
H4029       H  0.84901254  0.79941872  0.50740210     0.29000
H4030       H  0.89785331  0.95672970  0.48453429     0.29000
H4031       H  0.92608488  0.91149054  0.51476918     0.19600
H4032       H  0.82572386  0.84828125  0.48489812     0.19600
C4033       C  0.67494963  0.56000804  0.64774132    -0.06200
C4034       C  0.65667711  0.53106708  0.65568290    -0.17400
C4035       C  0.65307645  0.52789718  0.67424608     0.10900
C4036       C  0.66704123  0.55435002  0.68518665    -0.06200
C4037       C  0.68550224  0.58321998  0.67720937    -0.17400
C4038       C  0.68996174  0.58626151  0.65873875     0.11000
S4039       S  0.62840026  0.49001613  0.68304526    -0.32400
S4040       S  0.71265503  0.62447673  0.64987023    -0.32400
H4041       H  0.73375305  0.61791389  0.64151444     0.29000
H4042       H  0.65220446  0.48972745  0.69273737     0.29000
H4043       H  0.64481912  0.51078704  0.64732458     0.19600
H4044       H  0.69656044  0.60370257  0.68545994     0.19600
C4045       C  0.58058061  0.95125597  0.58372393    -0.06200
C4046       C  0.56805075  0.94011141  0.56679418    -0.17400
C4047       C  0.53735301  0.91713987  0.56484385     0.10900
C4048       C  0.51876337  0.90497707  0.58017946    -0.06200
C4049       C  0.53212067  0.91435589  0.59716788    -0.17400
C4050       C  0.56276944  0.93749260  0.59908845     0.11000
S4051       S  0.52311006  0.90511962  0.54246132    -0.32400
S4052       S  0.57739510  0.94975449  0.62140264    -0.32400
H4053       H  0.60852575  0.96179384  0.61703644     0.29000
H4054       H  0.00096509  0.87429266  0.54665982     0.29000
H4055       H  0.58165970  0.95079124  0.55496252     0.19600
H4056       H  0.51815147  0.90490988  0.60902078     0.19600
C4057       C  0.79318584  0.73905778  0.57109943    -0.06200
C4058       C  0.77949590  0.72549682  0.58741870    -0.17400
C4059       C  0.75584308  0.69475859  0.58830336     0.10900
C4060       C  0.74613742  0.67647701  0.57257867    -0.06200
C4061       C  0.75805820  0.69076533  0.55612705    -0.17400
C4062       C  0.78097978  0.72177175  0.55522608     0.11000
S4063       S  0.73892355  0.68048770  0.60992447    -0.32400
S4064       S  0.79337497  0.73816243  0.53340489    -0.32400
H4065       H  0.79778030  0.76694189  0.53873068     0.29000
H4066       H  0.70896378  0.66162497  0.60334368     0.29000
H4067       H  0.78801562  0.73856106  0.59969196     0.19600
H4068       H  0.75010589  0.67751761  0.54388306     0.19600
C4069       C  0.61213153  0.94413778  0.34982224    -0.06200
C4070       C  0.58325583  0.93106299  0.34151287    -0.17400
C4071       C  0.58028412  0.93329463  0.32308910     0.10900
C4072       C  0.60684239  0.94821286  0.31222584    -0.06200
C4073       C  0.63580976  0.96159389  0.32051743    -0.17400
C4074       C  0.63874153  0.95949395  0.33904897     0.11000
S4075       S  0.54177993  0.91777568  0.31455845    -0.32400
S4076       S  0.67699204  0.97511654  0.34786818    -0.32400
H4077       H  0.66889533  0.95062350  0.35978200     0.29000
H4078       H  0.54953002  0.94183099  0.30233603     0.29000
H4079       H  0.56259174  0.91980286  0.34954183     0.19600
H4080       H  0.65640171  0.97266479  0.31242573     0.19600
C4081       C  0.92938326  0.88467422  0.41389251    -0.06200
C4082       C  0.94322542  0.88479340  0.43016836    -0.17400
C4083       C  0.97379688  0.89191321  0.43092272     0.10900
C4084       C  0.99111791  0.89930799  0.41503965    -0.06200
C4085       C  0.97653495  0.89659323  0.39857994    -0.17400
C4086       C  0.94584736  0.88951609  0.39785207     0.11000
S4087       S  0.98970475  0.89249907  0.45261166    -0.32400
S4088       S  0.93020182  0.89060897  0.37637903    -0.32400
H4089       H  0.89943173  0.87002553  0.38078058     0.29000
H4090       H  0.50992117  0.88384239  0.44861754     0.29000
H4091       H  0.93072286  0.88139066  0.44253777     0.19600
H4092       H  0.48870530  0.89976405  0.38794509     0.19600
C4093       C  0.71393468  0.95466513  0.42397671    -0.06200
C4094       C  0.72608078  0.95391460  0.44076695    -0.17400
C4095       C  0.75165819  0.94997224  0.44232715     0.10900
C4096       C  0.76497096  0.94570385  0.42675684    -0.06200
C4097       C  0.75374681  0.94827083  0.40998156    -0.17400
C4098       C  0.72834717  0.95224772  0.40843126     0.11000
S4099       S  0.76631726  0.95117809  0.46444145    -0.32400
S4100       S  0.71376520  0.95082905  0.38625397    -0.32400
H4101       H  0.68286082  0.93074453  0.39076424     0.29000
H4102       H  0.79733692  0.96712889  0.45920021     0.29000
H4103       H  0.71537777  0.95617598  0.45278320     0.19600
H4104       H  0.76350959  0.94513491  0.39781731     0.19600
C4105       C  0.62368343  0.98356539  0.48363338    -0.06200
C4106       C  0.65239346  0.99062580  0.49065595    -0.17400
C4107       C  0.66525844  0.50963110  0.50470293     0.10900
C4108       C  0.64966009  0.52329712  0.51293161    -0.06200
C4109       C  0.62178093  0.51789505  0.50548997    -0.17400
C4110       C  0.60745319  0.99651036  0.49203081     0.11000
S4111       S  0.70199385  0.51610724  0.51248387    -0.32400
S4112       S  0.56927791  0.98714076  0.48542286    -0.32400
H4113       H  0.55953191  0.95628147  0.48120186     0.29000
H4114       H  0.71189302  0.54558267  0.51953598     0.29000
H4115       H  0.66557906  0.98163441  0.48424083     0.19600
H4116       H  0.60904884  0.52731364  0.51199575     0.19600
C4117       C  0.56826660  0.67454095  0.35489299    -0.06200
C4118       C  0.59346209  0.69644448  0.34509414    -0.17400
C4119       C  0.59403368  0.69506220  0.32649281     0.10900
C4120       C  0.56845917  0.67156774  0.31725626    -0.06200
C4121       C  0.54332172  0.64943158  0.32706612    -0.17400
C4122       C  0.54307224  0.65047026  0.34575433     0.11000
S4123       S  0.62877167  0.72312769  0.31549174    -0.32400
S4124       S  0.51065460  0.61969190  0.35711398    -0.32400
H4125       H  0.52789590  0.61707906  0.37109328     0.29000
H4126       H  0.62856159  0.70255417  0.30264725     0.29000
H4127       H  0.61315470  0.71456461  0.35203173     0.19600
H4128       H  0.52375466  0.63116752  0.32013117     0.19600
C4129       C  0.61636255  0.59886935  0.41519639    -0.06200
C4130       C  0.62362239  0.58815128  0.43062186    -0.17400
C4131       C  0.63193276  0.56561004  0.42962471     0.10900
C4132       C  0.63243756  0.55299998  0.41288381    -0.06200
C4133       C  0.62797969  0.56560158  0.39728595    -0.17400
C4134       C  0.61983174  0.58843594  0.39824515     0.11000
S4135       S  0.63845677  0.55146503  0.45034744    -0.32400
S4136       S  0.61079291  0.60054192  0.37756067    -0.32400
H4137       H  0.58430993  0.60005389  0.38403273     0.29000
H4138       H  0.65327600  0.03862611  0.44490827     0.29000
H4139       H  0.62168439  0.59658052  0.44361685     0.19600
H4140       H  0.62773828  0.55546947  0.38444829     0.19600
C4141       C  0.57402734  0.82771776  0.42634538    -0.06200
C4142       C  0.57147294  0.81213614  0.41022591    -0.17400
C4143       C  0.56696887  0.78236624  0.41000805     0.10900
C4144       C  0.56398927  0.76698193  0.42627639    -0.06200
C4145       C  0.56556326  0.78198977  0.44240980    -0.17400
C4146       C  0.57004148  0.81186168  0.44264154     0.11000
S4147       S  0.56807392  0.76653869  0.38855885    -0.32400
S4148       S  0.56960623  0.82784962  0.46411324    -0.32400
H4149       H  0.55232056  0.84113768  0.45818296     0.29000
H4150       H  0.58687503  0.75482272  0.39424906     0.29000
H4151       H  0.57464274  0.82378460  0.39756898     0.19600
H4152       H  0.56317665  0.77026950  0.45496221     0.19600
C4153       C  0.74692350  0.80140151  0.42887159    -0.06200
C4154       C  0.72997353  0.79500087  0.44479722    -0.17400
C4155       C  0.70011567  0.76996133  0.44619420     0.10900
C4156       C  0.68634074  0.75066679  0.43120556    -0.06200
C4157       C  0.70428416  0.75605082  0.41569501    -0.17400
C4158       C  0.73384354  0.78130787  0.41422037     0.11000
S4159       S  0.68099576  0.76488850  0.46728867    -0.32400
S4160       S  0.75202798  0.78810751  0.39264431    -0.32400
H4161       H  0.75948039  0.81909079  0.39186506     0.29000
H4162       H  0.67246484  0.73365980  0.46860366     0.29000
H4163       H  0.73988290  0.81004388  0.45623528     0.19600
H4164       H  0.69466555  0.74154563  0.40403558     0.19600
C4165       C  0.96171471  0.58400608  0.41780694    -0.06200
C4166       C  0.95133692  0.56907166  0.40135859    -0.17400
C4167       C  0.92909229  0.53791510  0.40064098     0.10900
C4168       C  0.91653408  0.52180441  0.41674798    -0.06200
C4169       C  0.92517470  0.53760766  0.43304728    -0.17400
C4170       C  0.94758124  0.56852784  0.43373766     0.11000
S4171       S  0.92072995  0.51944323  0.37907361    -0.32400
S4172       S  0.95938213  0.58617737  0.45546932    -0.32400
H4173       H  0.97208178  0.61671261  0.44956946     0.29000
H4174       H  0.92379500  0.99060719  0.38582854     0.29000
H4175       H  0.96289234  0.58079815  0.38918015     0.19600
H4176       H  0.91521246  0.52547576  0.44541576     0.19600
C4177       C  0.94248722  0.60776673  0.65011426    -0.06200
C4178       C  0.96843464  0.61069508  0.65908178    -0.17400
C4179       C  0.97002127  0.61086762  0.67779643     0.10900
C4180       C  0.94525251  0.60836703  0.68796384    -0.06200
C4181       C  0.91960264  0.60601819  0.67905925    -0.17400
C4182       C  0.91784278  0.60554428  0.66038373     0.11000
S4183       S  0.00357262  0.61286842  0.68781448    -0.32400
S4184       S  0.88273864  0.60022643  0.65064152    -0.32400
H4185       H  0.88006759  0.57803867  0.63817211     0.29000
H4186       H  0.98814815  0.59361584  0.70237085     0.29000
H4187       H  0.98747949  0.61231849  0.65143974     0.19600
H4188       H  0.90040903  0.60391766  0.68676719     0.19600
C4189       C  0.94803300  0.70617697  0.57347511    -0.06200
C4190       C  0.92317278  0.70127771  0.56261330    -0.17400
C4191       C  0.91660018  0.72482195  0.55922654     0.10900
C4192       C  0.93477981  0.75393079  0.56726044    -0.06200
C4193       C  0.96070578  0.75917892  0.57729190    -0.17400
C4194       C  0.96737082  0.73568689  0.58057575     0.11000
S4195       S  0.88316105  0.71541944  0.54599002    -0.32400
S4196       S  0.99929613  0.74422217  0.59507578    -0.32400
H4197       H  0.98568714  0.71535524  0.60348921     0.29000
H4198       H  0.89951969  0.73969999  0.53392115     0.29000
H4199       H  0.90828467  0.67862598  0.55703471     0.19600
H4200       H  0.97498029  0.78139841  0.58351847     0.19600
C4201       C  0.90222418  0.98699006  0.58045912    -0.06200
C4202       C  0.90087282  0.97364792  0.59723024    -0.17400
C4203       C  0.89196975  0.94257140  0.59885519     0.10900
C4204       C  0.88328191  0.92390013  0.58351632    -0.06200
C4205       C  0.88208387  0.93634759  0.56699995    -0.17400
C4206       C  0.89206096  0.96768173  0.56518065     0.11000
S4207       S  0.89514314  0.92878205  0.62053982    -0.32400
S4208       S  0.89474866  0.98172106  0.54272889    -0.32400
H4209       H  0.92639195  0.50549439  0.54423439     0.29000
H4210       H  0.87437772  0.89753611  0.61715901     0.29000
H4211       H  0.90807792  0.98776158  0.60915561     0.19600
H4212       H  0.87653872  0.92225880  0.55508537     0.19600
C4213       C  0.82824199  0.56154448  0.57464667    -0.06200
C4214       C  0.81285767  0.55391700  0.59120217    -0.17400
C4215       C  0.78219813  0.54636588  0.59268732     0.10900
C4216       C  0.76594837  0.54604767  0.57731678    -0.06200
C4217       C  0.78016268  0.55098380  0.56055943    -0.17400
C4218       C  0.81116992  0.55907857  0.55905311     0.11000
S4219       S  0.76538905  0.53862293  0.61470247    -0.32400
S4220       S  0.82807106  0.56884027  0.53714930    -0.32400
H4221       H  0.85287354  0.59731301  0.54259524     0.29000
H4222       H  0.73486390  0.51982128  0.60902028     0.29000
H4223       H  0.82509421  0.55477481  0.60330130     0.19600
H4224       H  0.76781530  0.55105920  0.54871014     0.19600
C4225       C  0.55308487  0.62138278  0.58394621    -0.06200
C4226       C  0.56819136  0.61987505  0.59928301    -0.17400
C4227       C  0.59163038  0.61262649  0.59812482     0.10900
C4228       C  0.59930891  0.60534926  0.58129505    -0.06200
C4229       C  0.58583844  0.60932496  0.56586150    -0.17400
C4230       C  0.56262280  0.61686760  0.56702891     0.11000
S4231       S  0.61071314  0.61305453  0.61861006    -0.32400
S4232       S  0.54403196  0.61745387  0.54656268    -0.32400
H4233       H  0.01414268  0.60053039  0.55360563     0.29000
H4234       H  0.63962143  0.62356160  0.61065643     0.29000
H4235       H  0.56101076  0.62340384  0.61228065     0.19600
H4236       H  0.59171967  0.60426822  0.55287542     0.19600
C4237       C  0.98621490  0.62314561  0.51648309    -0.06200
C4238       C  0.00300723  0.65422672  0.51139852    -0.17400
C4239       C  0.52656733  0.66353351  0.49796847     0.10900
C4240       C  0.52854746  0.64159395  0.48695913    -0.06200
C4241       C  0.50926817  0.61013825  0.49116163    -0.17400
C4242       C  0.99049537  0.60158798  0.50663225     0.11000
S4243       S  0.55060240  0.70451268  0.49537541    -0.32400
S4244       S  0.97182235  0.56151926  0.51253404    -0.32400
H4245       H  0.94221832  0.55781614  0.51212958     0.29000
H4246       H  0.57798262  0.70338069  0.49609063     0.29000
H4247       H  0.00055957  0.67122782  0.51902850     0.19600
H4248       H  0.51014986  0.59270063  0.48308456     0.19600
loop_ 
_geom_bond_atom_site_label_1 
_geom_bond_atom_site_label_2 
_geom_bond_distance 
_geom_bond_site_symmetry_2 
_ccdc_geom_bond_type 
Zn1           O5   1.919       .  S
Zn1           O6   1.981       .  S
Zn1          O10   1.999       .  S
Zn1          O17   2.014       .  S
Zn2           O5   1.943       .  S
Zn2           O7   1.976       .  S
Zn2          O13   2.053       .  S
Zn2        O2133   2.046       .  S
Zn3           O5   1.967       .  S
Zn3           O8   2.027       .  S
Zn3          O11   2.097       .  S
Zn3          O14   2.071       .  S
Zn4           O5   1.910       .  S
Zn4          O12   1.987       .  S
Zn4          O15   1.994       .  S
Zn4          O16   2.039       .  S
O6         C2142   1.271       .  A
O7           C19   1.269       .  A
O8           C20   1.275       .  A
O9        Zn2126   2.042   1_455  S
O9           C18   1.278       .  A
O10          C20   1.274       .  A
O11          C19   1.283       .  A
O12          C21   1.274       .  A
O13          C22   1.279       .  A
O14          C21   1.282       .  A
O15          C22   1.271       .  A
O16          C23   1.276       .  A
O17          C23   1.273       .  A
C18        O2130   1.271       .  A
C18        C1039   1.469       .  S
C19        C1051   1.494       .  S
C20        C2077   1.488   1_545  S
C21        C1027   1.493       .  S
C22        C1003   1.475       .  S
C23         C991   1.488       .  S
Zn24         O28   1.910       .  S
Zn24         O29   2.021       .  S
Zn24         O33   2.013       .  S
Zn24       O2164   1.968       .  S
Zn25         O28   1.921       .  S
Zn25         O30   2.046       .  S
Zn25         O32   2.048       .  S
Zn25         O36   1.998       .  S
Zn26         O28   1.916       .  S
Zn26         O31   1.988       .  S
Zn26         O34   1.969       .  S
Zn26         O37   1.993       .  S
Zn27         O28   1.937       .  S
Zn27         O35   2.019       .  S
Zn27         O38   2.029       .  S
Zn27       O2163   2.015   1_455  S
O29          C41   1.273       .  A
O30          C42   1.280       .  A
O31          C43   1.268       .  A
O32          C41   1.277       .  A
O33          C43   1.275       .  A
O34          C42   1.273       .  A
O35          C44   1.273       .  A
O36          C45   1.272       .  A
O37          C44   1.271       .  A
O38          C45   1.277       .  A
O39       Zn2151   2.016       .  S
O39          C46   1.275       .  A
O40       Zn2148   1.967       .  S
O40          C46   1.271       .  A
C41        C1054   1.506       .  S
C42         C970   1.491       .  S
C43         C943   1.467       .  S
C44         C931   1.472       .  S
C45         C958   1.476       .  S
C46         C979   1.452       .  S
Zn47         O51   1.930       .  S
Zn47         O52   2.006       .  S
Zn47         O56   1.998       .  S
Zn47         O63   2.017       .  S
Zn48         O51   1.914       .  S
Zn48         O53   2.012       .  S
Zn48         O55   2.010       .  S
Zn48       O1121   1.969       .  S
Zn49         O51   1.938       .  S
Zn49         O54   2.041       .  S
Zn49         O57   2.051       .  S
Zn49         O60   1.984       .  S
Zn50         O51   1.953       .  S
Zn50         O58   2.037       .  S
Zn50         O62   2.040       .  S
Zn50       O1123   2.035       .  S
O52          C64   1.271       .  A
O53          C65   1.271       .  A
O54          C66   1.279       .  A
O55          C64   1.274       .  A
O56          C66   1.275       .  A
O57          C65   1.278       .  A
O58          C67   1.278       .  A
O59       Zn1110   1.968   1_545  S
O59          C68   1.271       .  A
O60          C67   1.271       .  A
O61       Zn1112   2.034   1_545  S
O61          C68   1.276       .  A
O62          C69   1.276       .  A
O63          C69   1.275       .  A
C64        C3022   1.471   1_455  S
C65         C919   1.495       .  S
C66         C955   1.489       .  S
C67         C907   1.474       .  S
C68         C946   1.458       .  S
C69         C883   1.490       .  S
Zn70         O74   1.932       .  S
Zn70         O75   2.034       .  S
Zn70         O79   2.000       .  S
Zn70         O86   2.009       .  S
Zn71         O74   1.926       .  S
Zn71         O76   2.000       .  S
Zn71         O78   1.992       .  S
Zn71         O82   1.977       .  S
Zn72         O74   1.970       .  S
Zn72         O77   2.057       .  S
Zn72         O80   2.040       .  S
Zn72         O83   2.093       .  S
Zn73         O74   1.950       .  S
Zn73         O81   1.984       .  S
Zn73         O85   2.042       .  S
Zn73       O1146   2.036   1_545  S
O75          C87   1.274       .  A
O76          C88   1.272       .  A
O77          C89   1.282       .  A
O78          C87   1.269       .  A
O79          C89   1.274       .  A
O80          C88   1.276       .  A
O81          C90   1.269       .  A
O82        C1153   1.271   1_545  A
O83          C90   1.283       .  A
O84       Zn1135   2.033       .  S
O84          C91   1.277       .  A
O85          C92   1.276       .  A
O86          C92   1.274       .  A
C87         C847   1.477       .  S
C88        C1042   1.484       .  S
C89         C874   1.487       .  S
C90         C922   1.488       .  S
C91        O1144   1.271       .  A
C91         C859   1.465       .  S
C92        C1030   1.475       .  S
Zn93         O97   1.952       .  S
Zn93         O98   2.045       .  S
Zn93        O102   2.036       .  S
Zn93        O109   2.035       .  S
Zn94         O97   1.905       .  S
Zn94         O99   1.990       .  S
Zn94        O101   1.967       .  S
Zn94        O105   1.996       .  S
Zn95         O97   1.923       .  S
Zn95        O100   1.990       .  S
Zn95        O103   1.991       .  S
Zn95        O106   1.968       .  S
Zn96         O97   1.940       .  S
Zn96        O104   2.051       .  S
Zn96        O107   2.053       .  S
Zn96        O108   1.979       .  S
O98         C110   1.277       .  A
O99         C111   1.272       .  A
O100        C112   1.270       .  A
O101        C110   1.270       .  A
O102        C112   1.275       .  A
O103        C111   1.269       .  A
O104        C113   1.279       .  A
O105        C114   1.270       .  A
O106        C113   1.270       .  A
O107        C114   1.278       .  A
O108        C115   1.271       .  A
O109        C115   1.278       .  A
C110        C895   1.464       .  S
C111       C2044   1.462       .  S
C112        C823   1.476       .  S
C113        C910   1.486       .  S
C114        C838   1.486       .  S
C115        C967   1.479       .  S
Zn116       O120   1.920       .  S
Zn116       O121   2.006       .  S
Zn116       O125   2.011       .  S
Zn116       O132   1.986       .  S
Zn117       O120   1.949       .  S
Zn117       O122   2.052       .  S
Zn117       O124   2.036       .  S
Zn117       O128   2.060       .  S
Zn118       O120   1.907       .  S
Zn118       O123   2.011       .  S
Zn118       O126   1.968       .  S
Zn118       O129   1.993       .  S
Zn119       O120   1.935       .  S
Zn119       O127   2.076       .  S
Zn119       O130   2.006       .  S
Zn119       O131   2.067       .  S
O121        C133   1.274       .  A
O122        C134   1.279       .  A
O123        C135   1.273       .  A
O124        C133   1.276       .  A
O125        C135   1.271       .  A
O126        C134   1.270       .  A
O127        C136   1.280       .  A
O128        C137   1.281       .  A
O129        C136   1.271       .  A
O130        C137   1.273       .  A
O131        C138   1.283       .  A
O132        C138   1.275       .  A
C133        C811   1.484       .  S
C134       C1018   1.462       .  S
C135       C2986   1.475       .  S
C136        C835   1.499       .  S
C137        C871   1.487       .  S
C138       C1006   1.487       .  S
Zn139       O143   1.918   1_455  S
Zn139       O144   2.015       .  S
Zn139       O148   1.973       .  S
Zn139       O155   1.986       .  S
Zn140      O2267   1.924       .  S
Zn140       O145   1.994       .  S
Zn140       O147   2.042       .  S
Zn140       O151   1.999       .  S
Zn141       O143   1.957       .  S
Zn141       O146   2.055   1_655  S
Zn141       O152   1.989   1_655  S
Zn141      O2273   2.057       .  S
Zn142       O143   1.967   1_455  S
Zn142       O150   2.078       .  S
Zn142       O154   2.037       .  S
Zn142      O2277   2.058   1_455  S
O143      Zn2264   1.913       .  S
O144       C2280   1.271       .  A
O145        C157   1.272       .  A
O146        C158   1.279       .  A
O147        C156   1.276       .  A
O148        C158   1.270       .  A
O149      Zn2265   2.032       .  S
O149        C157   1.276       .  A
O150        C159   1.282       .  A
O151        C160   1.275       .  A
O152        C159   1.270       .  A
O153      Zn2266   2.066       .  S
O153        C160   1.281       .  A
O154        C161   1.275       .  A
O155        C161   1.272       .  A
C156       O2268   1.271       .  A
C156       C2863   1.485       .  S
C157        C787   1.470       .  S
C158        C751   1.469       .  S
C159        C799   1.478       .  S
C160        C763   1.492       .  S
C161        C778   1.488       .  S
Zn162       O166   1.904       .  S
Zn162       O167   1.986       .  S
Zn162       O171   1.968       .  S
Zn162       O178   1.976       .  S
Zn163       O166   1.913       .  S
Zn163       O168   1.987       .  S
Zn163       O170   2.031       .  S
Zn163       O174   2.001       .  S
Zn164       O166   1.944       .  S
Zn164       O169   2.044       .  S
Zn164       O175   1.979       .  S
Zn164      O2296   2.048   1_455  S
Zn165       O166   1.960       .  S
Zn165       O173   2.087       .  S
Zn165       O176   2.058       .  S
Zn165       O177   2.035       .  S
O167        C179   1.269       .  A
O168       C2304   1.274   1_455  A
O169        C181   1.278       .  A
O170        C179   1.274       .  A
O171        C181   1.270       .  A
O172      Zn2288   2.051       .  S
O172        C180   1.278       .  A
O173        C182   1.282       .  A
O174        C183   1.274       .  A
O175        C182   1.270       .  A
O176        C183   1.282       .  A
O177        C184   1.275       .  A
O178        C184   1.270       .  A
C179        C934   1.476       .  S
C180       O2292   1.273       .  A
C180        C718   1.494       .  S
C181        C706   1.468       .  S
C182        C802   1.500       .  S
C183        C691   1.487       .  S
C184        C730   1.478       .  S
Zn185       O189   1.942       .  S
Zn185       O190   2.022       .  S
Zn185       O194   2.048       .  S
Zn185       O201   1.978       .  S
Zn186       O189   1.913       .  S
Zn186       O191   2.002       .  S
Zn186       O193   1.978       .  S
Zn186       O197   2.000       .  S
Zn187       O189   1.906       .  S
Zn187       O192   1.983       .  S
Zn187       O195   2.024       .  S
Zn187       O198   1.981       .  S
Zn188       O189   1.954       .  S
Zn188       O196   2.061       .  S
Zn188       O199   2.034       .  S
Zn188       O200   2.098       .  S
O190        C202   1.277       .  A
O191        C203   1.270       .  A
O192        C204   1.270       .  A
O193        C202   1.273       .  A
O194        C204   1.277       .  A
O195        C203   1.273       .  A
O196        C205   1.282       .  A
O197        C206   1.272       .  A
O198        C205   1.273       .  A
O199        C206   1.277       .  A
O200        C207   1.284       .  A
O201        C207   1.268       .  A
C202        C727   1.459       .  S
C203        C826   1.475       .  S
C204        C655   1.478       .  S
C205       C1777   1.472       .  S
C206        C670   1.484       .  S
C207        C679   1.486       .  S
Zn208       O212   1.976       .  S
Zn208       O213   2.034       .  S
Zn208       O217   2.111       .  S
Zn208       O224   2.084       .  S
Zn209       O212   1.925       .  S
Zn209       O214   1.984       .  S
Zn209       O216   2.003       .  S
Zn209       O220   2.009       .  S
Zn210       O212   1.947       .  S
Zn210       O215   1.971       .  S
Zn210       O218   2.039       .  S
Zn210       O221   2.054       .  S
Zn211       O212   1.925       .  S
Zn211       O219   2.002       .  S
Zn211       O222   2.030       .  S
Zn211       O223   1.998       .  S
O213        C225   1.275       .  A
O214        C226   1.272       .  A
O215        C227   1.269       .  A
O216        C225   1.274       .  A
O217        C227   1.285       .  A
O218        C226   1.278       .  A
O219        C228   1.273       .  A
O220        C229   1.272       .  A
O221        C228   1.278       .  A
O222        C229   1.273       .  A
O223        C230   1.275       .  A
O224        C230   1.285       .  A
C225        C754   1.483       .  S
C226        C631   1.471       .  S
C227        C682   1.509       .  S
C228        C766   1.476       .  S
C229        C619   1.490       .  S
C230        C643   1.493       .  S
Zn231       O235   1.932   1_545  S
Zn231       O236   2.060       .  S
Zn231       O240   2.070       .  S
Zn231       O247   1.988       .  S
Zn232       O235   1.911   1_545  S
Zn232       O239   1.976       .  S
Zn232       O243   2.005       .  S
Zn232      O1299   2.009   1_545  S
Zn233      O1297   1.905       .  S
Zn233       O238   2.005       .  S
Zn233       O241   2.033       .  S
Zn233       O244   1.971       .  S
Zn234       O235   1.954       .  S
Zn234       O245   2.059   1_565  S
Zn234       O246   2.086   1_565  S
Zn234      O1304   2.063       .  S
O235      Zn1295   1.905       .  S
O236        C248   1.283       .  A
O237      Zn1294   2.005       .  S
O237        C249   1.270       .  A
O238        C250   1.272       .  A
O239        C248   1.274       .  A
O240       C1312   1.280   1_545  A
O241        C249   1.275       .  A
O242      Zn1296   2.057       .  S
O242        C251   1.280       .  A
O243        C252   1.274       .  A
O244        C251   1.272       .  A
O245        C252   1.278       .  A
O246        C253   1.283       .  A
O247        C253   1.272       .  A
C248        C790   1.491       .  S
C249        C634   1.474       .  S
C250       O1302   1.280       .  A
C250        C607   1.501       .  S
C251        C775   1.463       .  S
C252        C595   1.491   1_545  S
C253        C646   1.493       .  S
Zn254       O258   1.969       .  S
Zn254       O259   2.050       .  S
Zn254       O270   2.048       .  S
Zn254      O1325   2.063       .  S
Zn255       O258   1.920       .  S
Zn255       O260   1.967       .  S
Zn255       O262   1.996       .  S
Zn255       O266   1.985       .  S
Zn256       O258   1.952       .  S
Zn256       O264   2.061       .  S
Zn256       O267   2.066       .  S
Zn256      O1323   1.995       .  S
Zn257       O258   1.928       .  S
Zn257       O265   2.006       .  S
Zn257       O268   2.030       .  S
Zn257       O269   1.971       .  S
O259        C271   1.276       .  A
O260        C272   1.272       .  A
O261      Zn1318   1.993       .  S
O261        C273   1.272   1_565  A
O262        C271   1.270       .  A
O263      Zn1316   2.067   1_545  S
O263        C273   1.282       .  A
O264        C272   1.281       .  A
O265        C274   1.271       .  A
O266        C275   1.267       .  A
O267        C274   1.279       .  A
O268        C275   1.274       .  A
O269        C276   1.271       .  A
O270        C276   1.279       .  A
C271        C886   1.490       .  S
C272       C2782   1.488   1_455  S
C273        C694   1.489       .  S
C274        C610   1.491       .  S
C275        C703   1.473       .  S
C276        C667   1.464       .  S
Zn277       O281   1.912       .  S
Zn277       O282   2.026       .  S
Zn277       O286   1.993       .  S
Zn277       O293   1.986       .  S
Zn278       O281   1.917       .  S
Zn278       O283   2.004       .  S
Zn278       O285   2.000       .  S
Zn278       O289   1.981       .  S
Zn279       O281   1.955       .  S
Zn279       O284   2.072       .  S
Zn279       O287   2.022       .  S
Zn279       O290   2.089       .  S
Zn280       O281   1.944       .  S
Zn280       O288   1.978       .  S
Zn280       O291   2.044       .  S
Zn280       O292   2.044       .  S
O282        C294   1.274       .  A
O283        C295   1.273       .  A
O284        C296   1.282       .  A
O285        C294   1.270       .  A
O286        C296   1.273       .  A
O287        C295   1.276       .  A
O288        C297   1.269       .  A
O289        C298   1.272       .  A
O290        C297   1.283       .  A
O291        C298   1.278       .  A
O292        C299   1.278       .  A
O293        C299   1.272       .  A
C294        C814   1.473       .  S
C295        C571   1.480       .  S
C296       C2662   1.491       .  S
C297        C586   1.481       .  S
C298        C547   1.467       .  S
C299        C562   1.478       .  S
Zn300       O304   1.921       .  S
Zn300       O305   1.992       .  S
Zn300       O309   2.003       .  S
Zn300       O316   1.982       .  S
Zn301       O304   1.962       .  S
Zn301       O306   2.051       .  S
Zn301       O308   2.014       .  S
Zn301       O312   2.083       .  S
Zn302       O304   1.923       .  S
Zn302       O307   2.035       .  S
Zn302       O310   2.008       .  S
Zn302       O313   2.009       .  S
Zn303       O304   1.938       .  S
Zn303       O311   2.022       .  S
Zn303       O314   1.981       .  S
Zn303       O315   2.024       .  S
O305        C317   1.272       .  A
O306        C318   1.281       .  A
O307        C319   1.274       .  A
O308        C317   1.274       .  A
O309        C319   1.271       .  A
O310        C318   1.275       .  A
O311        C320   1.275       .  A
O312        C321   1.281       .  A
O313        C320   1.275       .  A
O314        C321   1.269       .  A
O315        C322   1.276       .  A
O316        C322   1.272       .  A
C317        C514   1.473       .  S
C318        C499   1.483       .  S
C319        C622   1.490       .  S
C320        C523   1.471       .  S
C321        C583   1.485       .  S
C322        C487   1.462       .  S
Zn323       O327   1.906       .  S
Zn323       O328   2.013       .  S
Zn323       O332   1.974       .  S
Zn323       O339   1.997       .  S
Zn324       O327   1.921       .  S
Zn324       O329   2.007       .  S
Zn324       O331   2.012       .  S
Zn324       O335   2.002       .  S
Zn325       O327   1.943       .  S
Zn325       O330   2.048       .  S
Zn325       O333   2.035       .  S
Zn325      O1398   2.065   1_545  S
Zn326       O327   1.918       .  S
Zn326       O334   2.010       .  S
Zn326       O337   2.042       .  S
Zn326       O338   2.056       .  S
O328        C340   1.273       .  A
O329        C341   1.275       .  A
O330        C342   1.279       .  A
O331        C340   1.271       .  A
O332        C342   1.271       .  A
O333        C341   1.276       .  A
O334       C1405   1.275   1_545  A
O335        C344   1.277       .  A
O336      Zn1387   2.067       .  S
O336        C343   1.281       .  A
O337        C344   1.280       .  A
O338        C345   1.278       .  A
O339        C345   1.272       .  A
C340        C550   1.475       .  S
C341        C850   1.480       .  S
C342        C466   1.462       .  S
C343       O1396   1.274       .  A
C343        C535   1.496       .  S
C344        C451   1.491       .  S
C345        C475   1.496       .  S
Zn346       O350   1.959       .  S
Zn346       O362   2.039       .  S
Zn346      O1413   2.051       .  S
Zn346      O1417   2.042   1_545  S
Zn347       O350   1.920       .  S
Zn347       O358   1.993       .  S
Zn347      O1414   1.980   1_545  S
Zn347      O1416   1.993       .  S
Zn348      O1412   1.943       .  S
Zn348       O353   1.987       .  S
Zn348       O356   2.052       .  S
Zn348       O359   2.046       .  S
Zn349       O350   1.919       .  S
Zn349       O357   1.995       .  S
Zn349       O360   2.019       .  S
Zn349       O361   1.969       .  S
O350      Zn1410   1.944   1_545  S
O351      Zn1408   2.045       .  S
O351        C363   1.276       .  A
O352      Zn1409   1.975       .  S
O352        C364   1.272       .  A
O353        C365   1.271       .  A
O354      Zn1409   1.990       .  S
O354        C363   1.270       .  A
O355      Zn1408   2.038       .  S
O355        C365   1.278       .  A
O356        C364   1.280       .  A
O357        C366   1.269       .  A
O358        C367   1.268       .  A
O359       C1428   1.277       .  A
O360        C367   1.274       .  A
O361        C368   1.272       .  A
O362        C368   1.277       .  A
C363       C1660   1.487       .  S
C364        C526   1.485       .  S
C365        C430   1.476       .  S
C366       O1421   1.277   1_545  A
C366        C478   1.488       .  S
C367        C439   1.466       .  S
C368        C511   1.461       .  S
Zn369       O373   1.932       .  S
Zn369       O374   1.990       .  S
Zn369       O378   2.062       .  S
Zn369       O385   2.082       .  S
Zn370       O373   1.952       .  S
Zn370       O375   2.046       .  S
Zn370       O377   2.063       .  S
Zn370      O2505   2.044   1_455  S
Zn371       O373   1.921       .  S
Zn371       O376   1.980       .  S
Zn371       O379   2.009       .  S
Zn371      O2506   2.005   1_455  S
Zn372      O2497   1.905       .  S
Zn372       O380   2.003       .  S
Zn372       O383   1.965       .  S
Zn372       O384   1.994       .  S
O373      Zn2496   1.900   1_455  S
O374        C386   1.271       .  A
O375        C387   1.277       .  A
O376        C388   1.271       .  A
O377        C386   1.281       .  A
O378        C388   1.284       .  A
O379        C387   1.273       .  A
O380        C389   1.272       .  A
O381      Zn2494   2.045       .  S
O381        C390   1.278       .  A
O382      Zn2495   2.004       .  S
O382        C389   1.270       .  A
O383        C390   1.270       .  A
O384        C391   1.270       .  A
O385       C2515   1.281   1_455  A
C386        C502   1.491       .  S
C387        C742   1.484       .  S
C388        C427   1.493       .  S
C389        C490   1.472       .  S
C390        C442   1.459       .  S
C391       O2509   1.281       .  A
C391        C415   1.497       .  S
Zn392       O396   1.941       .  S
Zn392       O401   2.074       .  S
Zn392       O408   2.079       .  S
Zn392      O2521   1.983       .  S
Zn393       O396   1.958       .  S
Zn393       O398   2.053       .  S
Zn393       O404   2.053       .  S
Zn393      O2524   2.062       .  S
Zn394       O396   1.912       .  S
Zn394       O399   1.973       .  S
Zn394       O402   2.005       .  S
Zn394       O405   2.000       .  S
Zn395       O396   1.906       .  S
Zn395       O403   2.017       .  S
Zn395       O406   1.961       .  S
Zn395       O407   1.994       .  S
O397      Zn2516   1.984       .  S
O397        C409   1.272   1_655  A
O398        C410   1.277       .  A
O399        C411   1.274       .  A
O400      Zn2517   2.056   1_455  S
O400        C409   1.279       .  A
O401        C411   1.284       .  A
O402        C410   1.272       .  A
O403        C412   1.274       .  A
O404        C413   1.280       .  A
O405        C412   1.270       .  A
O406        C413   1.270       .  A
O407        C414   1.270       .  A
O408        C414   1.281       .  A
C409        C454   1.495       .  S
C410        C994   1.480       .  S
C411       C1621   1.484   1_545  S
C412        C463   1.473       .  S
C413        C574   1.462       .  S
C414        C418   1.497       .  S
C415        C420   1.417       .  A
C415       C2540   1.407       .  A
C416       C2539   1.406       .  A
C416       C2541   1.408       .  A
C416        H425   1.083   1_655  S
C417        C418   1.418       .  A
C417       C2540   1.408       .  A
C417       S2545   1.802       .  S
C418        C419   1.407       .  A
C419        C420   1.407       .  A
C419        H426   1.082       .  S
C420        S422   1.810       .  S
S421       C2541   1.802   1_455  S
S421        H424   1.408       .  S
S422        H423   1.407       .  S
C427        C428   1.407       .  A
C427        C432   1.426       .  A
C428        C429   1.401       .  A
C428        H437   1.084       .  S
C429        C430   1.413       .  A
C429        S433   1.804       .  S
C430        C431   1.397       .  A
C431        C432   1.397       .  A
C431        H438   1.085       .  S
C432        S434   1.804       .  S
S433        H436   1.407       .  S
S434        H435   1.408       .  S
C439        C440   1.402       .  A
C439        C444   1.410       .  A
C440        C441   1.397       .  A
C440        H449   1.084       .  S
C441        C442   1.410       .  A
C441        S445   1.805       .  S
C442        C443   1.401       .  A
C443        C444   1.398       .  A
C443        H450   1.084       .  S
C444        S446   1.804       .  S
S445        H448   1.407       .  S
S446        H447   1.407       .  S
C451        C452   1.410       .  A
C451        C456   1.414       .  A
C452        C453   1.401       .  A
C452        H461   1.084       .  S
C453        C454   1.416       .  A
C453        S457   1.800       .  S
C454        C455   1.411       .  A
C455        C456   1.398       .  A
C455        H462   1.084       .  S
C456        S458   1.801       .  S
S457       H2584   1.407       .  S
S458        H459   1.408       .  S
H460       S2581   1.407       .  S
C463        C464   1.406       .  A
C463        C468   1.412       .  A
C464        C465   1.399       .  A
C464        H473   1.084       .  S
C465        C466   1.408       .  A
C465        S469   1.804       .  S
C466        C467   1.402       .  A
C467        C468   1.397       .  A
C467        H474   1.085       .  S
C468        S470   1.803       .  S
S469        H472   1.406       .  S
S470        H471   1.407       .  S
C475        C476   1.409       .  A
C475        C480   1.418       .  A
C476        C477   1.402       .  A
C476        H485   1.083       .  S
C477        C478   1.415       .  A
C477        S481   1.804       .  S
C478        C479   1.406       .  A
C479        C480   1.404       .  A
C479       H1548   1.084   1_545  S
C480       S1544   1.800   1_545  S
S481        H484   1.407       .  S
S482       C1542   1.800       .  S
S482       H1545   1.408       .  S
H483       S1544   1.408   1_545  S
H486       C1541   1.084       .  S
C487        C488   1.401       .  A
C487        C492   1.409       .  A
C488        C489   1.397       .  A
C488        H497   1.084       .  S
C489        C490   1.413       .  A
C489        S493   1.804       .  S
C490        C491   1.404       .  A
C491        C492   1.397       .  A
C491        H498   1.084       .  S
C492        S494   1.804       .  S
S493        H496   1.407       .  S
S494        H495   1.407       .  S
C499        C500   1.400       .  A
C499        C504   1.416       .  A
C500        C501   1.405       .  A
C500        H509   1.083       .  S
C501        C502   1.422       .  A
C501        S505   1.810       .  S
C502        C503   1.404       .  A
C503        C504   1.402       .  A
C503        H510   1.084       .  S
C504        S506   1.804       .  S
S505        H508   1.406       .  S
S506        H507   1.408       .  S
C511        C512   1.398       .  A
C511        C516   1.412       .  A
C512        C513   1.399       .  A
C512        H521   1.084       .  S
C513        C514   1.416       .  A
C513        S517   1.804       .  S
C514        C515   1.401       .  A
C515        C516   1.394       .  A
C515        H522   1.084       .  S
C516        S518   1.806       .  S
S517        H520   1.407       .  S
S518        H519   1.407       .  S
C523        C524   1.405       .  A
C523        C528   1.407       .  A
C524        C525   1.404       .  A
C524        H533   1.085       .  S
C525        C526   1.415       .  A
C525        S529   1.801       .  S
C526        C527   1.408       .  A
C527        C528   1.392       .  A
C527        H534   1.084       .  S
C528        S530   1.802       .  S
S529        H532   1.407       .  S
S530        H531   1.407       .  S
C535        C536   1.411       .  A
C535        C540   1.416       .  A
C536        C537   1.403       .  A
C536        H545   1.084       .  S
C537        C538   1.412       .  A
C537        S541   1.802       .  S
C538       C2420   1.489   1_455  S
C538        C539   1.408       .  A
C539        C540   1.403       .  A
C539        H546   1.084       .  S
C540        S542   1.801       .  S
S541       H2668   1.407   1_455  S
S542        H543   1.408       .  S
H544       S2665   1.407       .  S
C547        C548   1.402       .  A
C547        C552   1.411       .  A
C548        C549   1.399       .  A
C548        H557   1.084       .  S
C549        C550   1.413       .  A
C549        S553   1.803       .  S
C550        C551   1.404       .  A
C551        C552   1.399       .  A
C551        H558   1.084       .  S
C552        S554   1.804       .  S
S553        H556   1.407       .  S
S554        H555   1.407       .  S
C559       C1473   1.484       .  S
C559        C560   1.405       .  A
C559        C564   1.415       .  A
C560        C561   1.391       .  A
C560        H569   1.084       .  S
C561        C562   1.411       .  A
C561        S565   1.806       .  S
C562        C563   1.408       .  A
C563        C564   1.408       .  A
C563        H570   1.084       .  S
C564        S566   1.801       .  S
S565        H568   1.407       .  S
S566       H1629   1.406       .  S
H567       S1628   1.407       .  S
C571        C572   1.403       .  A
C571        C576   1.419       .  A
C572        C573   1.395       .  A
C572        H581   1.083       .  S
C573        C574   1.411       .  A
C573        S577   1.804       .  S
C574        C575   1.399       .  A
C575        C576   1.400       .  A
C575        H582   1.083       .  S
C576        S578   1.803       .  S
S577        H580   1.406       .  S
S578        H579   1.408       .  S
C583        C584   1.404       .  A
C583        C588   1.416       .  A
C584        C585   1.399       .  A
C584        H593   1.084       .  S
C585        C586   1.413       .  A
C585        S589   1.806       .  S
C586        C587   1.406       .  A
C587        C588   1.409       .  A
C587        H594   1.084       .  S
C588        S590   1.802       .  S
S589        H592   1.406       .  S
S590        H591   1.406       .  S
C595        C600   1.417   1_565  A
C595       C1658   1.405       .  A
C596        C597   1.397   1_554  A
C596       C1657   1.405       .  A
C596        H605   1.084       .  S
C597       C1660   1.417       .  A
C597        S601   1.806       .  S
C598       C1425   1.489       .  S
C598        C599   1.407   1_565  A
C598       C1659   1.417       .  A
C599        C600   1.406   1_556  A
C599        H606   1.083       .  S
C600        S602   1.800       .  S
S601        H604   1.408       .  S
S602        H603   1.406       .  S
C607        C608   1.410       .  A
C607        C612   1.420       .  A
C608        C609   1.403       .  A
C608        H617   1.083       .  S
C609        C610   1.414       .  A
C609        S613   1.804       .  S
C610        C611   1.406       .  A
C611        C612   1.407       .  A
C611        H618   1.084       .  S
C612       S1676   1.802       .  S
S613        H616   1.407       .  S
S614       C1674   1.801   1_545  S
S614        H615   1.408       .  S
C619        C620   1.407       .  A
C619        C624   1.417       .  A
C620        C621   1.399   1_554  A
C620        H629   1.084       .  S
C621        C622   1.415       .  A
C621        S625   1.800       .  S
C622        C623   1.408       .  A
C623        C624   1.402   1_556  A
C623        H630   1.084       .  S
C624        S626   1.802       .  S
S625        H628   1.407       .  S
S626        H627   1.407       .  S
C631        C632   1.404       .  A
C631        C636   1.412       .  A
C632        C633   1.402       .  A
C632        H641   1.084       .  S
C633        C634   1.412       .  A
C633        S637   1.803       .  S
C634        C635   1.402       .  A
C635        C636   1.397       .  A
C635        H642   1.084       .  S
C636        S638   1.805       .  S
S637        H640   1.407       .  S
S638        H639   1.407       .  S
C643        C644   1.411       .  A
C643        C648   1.412       .  A
C644        C645   1.404       .  A
C644        H653   1.084       .  S
C645        C646   1.413       .  A
C645        S649   1.800       .  S
C646        C647   1.411       .  A
C647        C648   1.404       .  A
C647        H654   1.084       .  S
C648        S650   1.801       .  S
S649        H652   1.407       .  S
S650        H651   1.407       .  S
C655        C656   1.407       .  A
C655        C660   1.410       .  A
C656        C657   1.408       .  A
C656        H665   1.084       .  S
C657        C658   1.416       .  A
C657        S661   1.800       .  S
C658       C2396   1.489       .  S
C658        C659   1.408       .  A
C659        C660   1.392       .  A
C659        H666   1.084       .  S
C660        S662   1.805       .  S
S661       H2788   1.407       .  S
S662        H663   1.407       .  S
H664       S2785   1.407       .  S
C667        C668   1.399       .  A
C667        C672   1.409       .  A
C668        C669   1.405       .  A
C668        H677   1.084       .  S
C669        C670   1.419       .  A
C669        S673   1.809       .  S
C670        C671   1.403       .  A
C671        C672   1.396       .  A
C671        H678   1.084       .  S
C672        S674   1.805       .  S
S673        H676   1.407       .  S
S674        H675   1.407       .  S
C679        C680   1.409       .  A
C679        C684   1.405       .  A
C680        C681   1.410       .  A
C680        H689   1.087       .  S
C681        C682   1.418       .  A
C681        S685   1.799       .  S
C682        C683   1.417       .  A
C683        C684   1.401       .  A
C683        H690   1.085       .  S
C684        S686   1.801       .  S
S685        H688   1.407       .  S
S686        H687   1.405       .  S
C691        C692   1.402       .  A
C691        C696   1.419       .  A
C692        C693   1.402       .  A
C692        H701   1.084       .  S
C693        C694   1.420       .  A
C693        S697   1.804       .  S
C694        C695   1.403       .  A
C695        C696   1.402       .  A
C695        H702   1.084       .  S
C696        S698   1.804       .  S
S697        H700   1.407       .  S
S698        H699   1.408       .  S
C703        C704   1.401       .  A
C703        C708   1.414       .  A
C704        C705   1.399       .  A
C704        H713   1.084       .  S
C705        C706   1.413       .  A
C705        S709   1.801       .  S
C706        C707   1.402       .  A
C707        C708   1.397       .  A
C707        H714   1.085       .  S
C708        S710   1.801       .  S
S709        H712   1.405       .  S
S710        H711   1.407       .  S
C715       C1267   1.472   1_545  S
C715        C716   1.403       .  A
C715        C720   1.408       .  A
C716        C717   1.408       .  A
C716        H725   1.084       .  S
C717        C718   1.420       .  A
C717        S721   1.800       .  S
C718        C719   1.410       .  A
C719        C720   1.391       .  A
C719        H726   1.084       .  S
C720       S1784   1.808   1_545  S
S721        H724   1.407       .  S
S722       C1782   1.807       .  S
S722        H723   1.407       .  S
C727        C728   1.401       .  A
C727        C732   1.405       .  A
C728        C729   1.398       .  A
C728        H737   1.088       .  S
C729        C730   1.414       .  A
C729        S733   1.802       .  S
C730        C731   1.408       .  A
C731        C732   1.395       .  A
C731        H738   1.086       .  S
C732        S734   1.804       .  S
S733        H736   1.407       .  S
S734        H735   1.407       .  S
C739       C2280   1.485       .  S
C739        C744   1.416       .  A
C739       C2864   1.403   1_455  A
C740        C741   1.401   1_554  A
C740       C2863   1.402       .  A
C740        H749   1.084       .  S
C741       C2866   1.418       .  A
C741        S745   1.804       .  S
C742        C743   1.403       .  A
C742       C2865   1.417   1_455  A
C743        C744   1.403   1_556  A
C743        H750   1.084       .  S
C744        S746   1.799       .  S
S745        H748   1.407       .  S
S746        H747   1.407       .  S
C751        C752   1.404       .  A
C751        C756   1.407       .  A
C752        C753   1.403       .  A
C752        H761   1.084       .  S
C753        C754   1.417       .  A
C753        S757   1.803       .  S
C754        C755   1.405       .  A
C755        C756   1.397       .  A
C755        H762   1.084       .  S
C756        S758   1.800       .  S
S757        H760   1.407       .  S
S758        H759   1.407       .  S
C763        C764   1.408       .  A
C763        C768   1.418       .  A
C764        C765   1.397       .  A
C764        H773   1.084       .  S
C765        C766   1.408       .  A
C765        S769   1.805       .  S
C766        C767   1.405       .  A
C767        C768   1.408       .  A
C767        H774   1.084       .  S
C768        S770   1.800       .  S
S769        H772   1.407       .  S
S770        H771   1.407       .  S
C775        C776   1.402       .  A
C775        C780   1.405       .  A
C776        C777   1.401       .  A
C776        H785   1.084       .  S
C777        C778   1.418       .  A
C777        S781   1.801       .  S
C778        C779   1.410       .  A
C779        C780   1.395       .  A
C779        H786   1.083       .  S
C780        S782   1.804       .  S
S781        H784   1.408       .  S
S782        H783   1.406       .  S
C787        C788   1.404       .  A
C787        C792   1.406       .  A
C788        C789   1.405       .  A
C788        H797   1.084       .  S
C789        C790   1.418       .  A
C789        S793   1.800       .  S
C790        C791   1.411       .  A
C791        C792   1.393       .  A
C791        H798   1.084       .  S
C792        S794   1.806       .  S
S793        H796   1.407       .  S
S794        H795   1.407       .  S
C799        C800   1.405       .  A
C799        C804   1.408   1_455  A
C800        C801   1.406       .  A
C800        H809   1.084       .  S
C801        C802   1.417       .  A
C801        S805   1.798       .  S
C802        C803   1.414       .  A
C803        C804   1.402   1_455  A
C803        H810   1.084   1_455  S
C804       S2930   1.804       .  S
S805        H808   1.407       .  S
S806       C2928   1.806       .  S
S806        H807   1.407       .  S
C811        C812   1.407       .  A
C811        C816   1.416       .  A
C812        C813   1.398       .  A
C812        H821   1.084       .  S
C813        C814   1.410       .  A
C813        S817   1.804       .  S
C814        C815   1.404       .  A
C815        C816   1.402       .  A
C815        H822   1.084       .  S
C816        S818   1.802       .  S
S817        H820   1.407       .  S
S818        H819   1.407       .  S
C823        C824   1.403       .  A
C823        C828   1.415       .  A
C824        C825   1.400       .  A
C824        H833   1.084       .  S
C825        C826   1.413       .  A
C825        S829   1.802       .  S
C826        C827   1.403       .  A
C827        C828   1.398       .  A
C827        H834   1.085       .  S
C828        S830   1.805       .  S
S829        H832   1.407       .  S
S830        H831   1.407       .  S
C835        C836   1.410       .  A
C835        C840   1.418       .  A
C836        C837   1.403       .  A
C836        H845   1.084       .  S
C837        C838   1.414       .  A
C837        S841   1.804       .  S
C838        C839   1.403       .  A
C839        C840   1.403       .  A
C839        H846   1.084       .  S
C840        S842   1.792       .  S
S841        H844   1.407       .  S
S842        H843   1.407       .  S
C847        C848   1.406       .  A
C847        C852   1.410       .  A
C848        C849   1.401       .  A
C848        H857   1.084       .  S
C849        C850   1.412       .  A
C849        S853   1.798   1_545  S
C850        C851   1.406       .  A
C851        C852   1.398       .  A
C851        H858   1.084       .  S
C852        S854   1.799       .  S
S853        H856   1.407       .  S
S854        H855   1.406       .  S
C859        C860   1.401       .  A
C859        C864   1.410       .  A
C860        C861   1.398       .  A
C860        H869   1.084       .  S
C861        C862   1.413       .  A
C861        S865   1.803       .  S
C862       C2259   1.475   1_455  S
C862        C863   1.405       .  A
C863        C864   1.398       .  A
C863        H870   1.084       .  S
C864        S866   1.805       .  S
S865       H2992   1.407       .  S
S866        H867   1.407       .  S
H868       S2989   1.407       .  S
C871        C872   1.402       .  A
C871        C876   1.417       .  A
C872        C873   1.402       .  A
C872        H881   1.084       .  S
C873        C874   1.420       .  A
C873        S877   1.803       .  S
C874        C875   1.401       .  A
C875        C876   1.400       .  A
C875        H882   1.084       .  S
C876        S878   1.796       .  S
S877        H880   1.408       .  S
S878        H879   1.406       .  S
C883        C884   1.405       .  A
C883        C888   1.416       .  A
C884        C885   1.398       .  A
C884        H893   1.084       .  S
C885        C886   1.417       .  A
C885        S889   1.804       .  S
C886        C887   1.407       .  A
C887        C888   1.405       .  A
C887        H894   1.084       .  S
C888        S890   1.801       .  S
S889        H892   1.407       .  S
S890        H891   1.406       .  S
C895        C896   1.402       .  A
C895        C900   1.410       .  A
C896        C897   1.395       .  A
C896        H905   1.084       .  S
C897        C898   1.411       .  A
C897        S901   1.804       .  S
C898       C2188   1.472       .  S
C898        C899   1.406       .  A
C899        C900   1.401       .  A
C899       H3030   1.084       .  S
C900        S902   1.803       .  S
S901       H3028   1.407       .  S
S902        H903   1.404       .  S
H904       S3025   1.407   1_455  S
H906       C3023   1.084       .  S
C907        C908   1.407       .  A
C907        C912   1.409       .  A
C908        C909   1.401       .  A
C908        H917   1.084       .  S
C909        C910   1.413       .  A
C909        S913   1.801       .  S
C910        C911   1.410       .  A
C911        C912   1.394       .  A
C911        H918   1.083       .  S
C912        S914   1.803       .  S
S913        H916   1.407       .  S
S914        H915   1.407       .  S
C919        C920   1.405       .  A
C919        C924   1.420       .  A
C920       C1983   1.402       .  A
C920        H929   1.084       .  S
C921        C922   1.416       .  A
C921       C1982   1.403   1_545  A
C921        S925   1.805       .  S
C922        C923   1.404       .  A
C923       C1986   1.408   1_545  A
C923        H930   1.084       .  S
C924       C1985   1.408       .  A
C924        S926   1.803       .  S
S925        H928   1.407       .  S
S926        H927   1.408       .  S
C931        C932   1.400       .  A
C931        C936   1.414       .  A
C932        C933   1.395       .  A
C932        H941   1.084       .  S
C933        C934   1.416       .  A
C933        S937   1.805       .  S
C934        C935   1.403       .  A
C935        C936   1.401       .  A
C935        H942   1.084       .  S
C936        S938   1.804       .  S
S937        H940   1.407       .  S
S938        H939   1.407       .  S
C943        C944   1.399       .  A
C943        C948   1.417       .  A
C944        C945   1.392       .  A
C944        H953   1.085       .  S
C945        C946   1.410       .  A
C945        S949   1.805       .  S
C946        C947   1.400       .  A
C947        C948   1.400       .  A
C947        H954   1.085       .  S
C948        S950   1.804       .  S
S949       H2014   1.406       .  S
S950        H951   1.407       .  S
H952       S2011   1.406       .  S
C955        C956   1.409       .  A
C955        C960   1.417       .  A
C956        C957   1.396       .  A
C956        H965   1.084       .  S
C957        C958   1.411       .  A
C957        S961   1.805       .  S
C958        C959   1.404       .  A
C959        C960   1.402       .  A
C959        H966   1.084       .  S
C960        S962   1.802       .  S
S961        H964   1.407       .  S
S962        H963   1.408       .  S
C967        C968   1.407       .  A
C967        C972   1.410       .  A
C968        C969   1.399       .  A
C968        H977   1.084       .  S
C969        C970   1.416       .  A
C969        S973   1.801       .  S
C970        C971   1.412       .  A
C971        C972   1.395       .  A
C971        H978   1.083       .  S
C972        S974   1.804       .  S
S973        H976   1.408       .  S
S974        H975   1.408       .  S
C979        C980   1.399       .  A
C979        C984   1.408       .  A
C980        C981   1.396       .  A
C980        H989   1.084       .  S
C981        C982   1.414       .  A
C981        S985   1.804       .  S
C982       C1173   1.462   1_545  S
C982        C983   1.400       .  A
C983        C984   1.391       .  A
C983        H990   1.085       .  S
C984        S986   1.805       .  S
S985       H2050   1.407   1_545  S
S986        H987   1.406       .  S
H988       S2047   1.407       .  S
C991        C992   1.409       .  A
C991        C996   1.416       .  A
C992        C993   1.404       .  A
C992       H1001   1.084       .  S
C993        C994   1.412       .  A
C993        S997   1.804       .  S
C994        C995   1.404       .  A
C995        C996   1.401       .  A
C995       H1002   1.084       .  S
C996        S998   1.803       .  S
S997       H1000   1.406       .  S
S998        H999   1.407       .  S
C1003      C1004   1.406       .  A
C1003      C1008   1.407       .  A
C1004      C1005   1.402       .  A
C1004      H1013   1.084       .  S
C1005      C1006   1.413       .  A
C1005      S1009   1.800       .  S
C1006      C1007   1.411       .  A
C1007      C1008   1.401       .  A
C1007      H1014   1.084       .  S
C1008      S1010   1.803       .  S
S1009      H1012   1.407       .  S
S1010      H1011   1.406       .  S
C1015      C1082   1.487       .  S
C1015      C1016   1.410       .  A
C1015      C1020   1.418       .  A
C1016      C1017   1.397       .  A
C1016      H1025   1.083       .  S
C1017      C1018   1.406       .  A
C1017      S1021   1.805       .  S
C1018      C1019   1.401       .  A
C1019      C1020   1.399       .  A
C1019      H1026   1.084       .  S
C1020      S1022   1.803       .  S
S1021      H1024   1.406       .  S
S1022      H2085   1.408       .  S
H1023      S2084   1.408   1_545  S
C1027      C1028   1.410       .  A
C1027      C1032   1.418       .  A
C1028      C1029   1.397       .  A
C1028      H1037   1.084       .  S
C1029      C1030   1.407       .  A
C1029      S1033   1.805       .  S
C1030      C1031   1.405       .  A
C1031      C1032   1.407       .  A
C1031      H1038   1.084       .  S
C1032      S1034   1.800       .  S
S1033      H1036   1.407       .  S
S1034      H1035   1.407       .  S
C1039      C1040   1.400       .  A
C1039      C1044   1.413       .  A
C1040      C1041   1.400       .  A
C1040      H1049   1.083       .  S
C1041      C1042   1.418       .  A
C1041      S1045   1.804       .  S
C1042      C1043   1.404       .  A
C1043      C1044   1.400       .  A
C1043      H1050   1.083       .  S
C1044      S1046   1.803       .  S
S1045      H1048   1.408       .  S
S1046      H3171   1.406       .  S
H1047      S3170   1.406       .  S
C1051      C1052   1.407       .  A
C1051      C1056   1.413       .  A
C1052      C3177   1.401       .  A
C1052      H1061   1.084       .  S
C1053      C1054   1.419       .  A
C1053      C3176   1.400       .  A
C1053      S1057   1.802       .  S
C1054      C1055   1.415       .  A
C1055      C3180   1.410   1_455  A
C1055      H1062   1.083       .  S
C1056      C3179   1.409       .  A
C1056      S1058   1.799       .  S
S1057      H1060   1.408       .  S
S1058      H1059   1.406       .  S
Zn1063     O1067   1.918       .  S
Zn1063     O1068   1.983       .  S
Zn1063     O1072   1.996       .  S
Zn1063     O1079   2.013       .  S
Zn1064     O1067   1.941       .  S
Zn1064     O1069   1.970       .  S
Zn1064     O3195   2.044       .  S
Zn1064     O1075   2.050       .  S
Zn1065     O1067   1.968       .  S
Zn1065     O1070   2.027       .  S
Zn1065     O1073   2.100       .  S
Zn1065     O1076   2.071       .  S
Zn1066     O1067   1.910       .  S
Zn1066     O1074   1.990       .  S
Zn1066     O1077   1.994       .  S
Zn1066     O1078   2.039       .  S
O1068      C3204   1.271       .  A
O1069      C1081   1.269       .  A
O1070      C1082   1.275       .  A
O1071     Zn3188   2.045   1_455  S
O1071      C1080   1.279       .  A
O1072      C1082   1.274       .  A
O1073      C1081   1.283       .  A
O1074      C1083   1.274       .  A
O1075      C1084   1.278       .  A
O1076      C1083   1.282       .  A
O1077      C1084   1.272       .  A
O1078      C1085   1.276       .  A
O1079      C1085   1.273       .  A
C1080      O3192   1.271       .  A
C1080      C2101   1.469       .  S
C1081      C2113   1.497       .  S
C1083      C2089   1.493       .  S
C1084      C2065   1.475       .  S
C1085      C2053   1.488       .  S
Zn1086     O1090   1.909       .  S
Zn1086     O1091   2.017       .  S
Zn1086     O1095   2.013       .  S
Zn1086     O3226   1.967       .  S
Zn1087     O1090   1.920       .  S
Zn1087     O1092   2.040       .  S
Zn1087     O1094   2.047       .  S
Zn1087     O1098   1.996       .  S
Zn1088     O1090   1.917       .  S
Zn1088     O1093   1.992       .  S
Zn1088     O1096   1.977       .  S
Zn1088     O1099   1.996       .  S
Zn1089     O1090   1.940       .  S
Zn1089     O1097   2.017       .  S
Zn1089     O1100   2.033       .  S
Zn1089     O3225   2.016   1_455  S
O1091      C1103   1.273       .  A
O1092      C1104   1.279       .  A
O1093      C1105   1.269       .  A
O1094      C1103   1.277       .  A
O1095      C1105   1.275       .  A
O1096      C1104   1.273       .  A
O1097      C1106   1.272       .  A
O1098      C1107   1.272       .  A
O1099      C1106   1.272       .  A
O1100      C1107   1.277       .  A
O1101     Zn3213   2.015       .  S
O1101      C1108   1.275       .  A
O1102     Zn3210   1.968       .  S
O1102      C1108   1.271       .  A
C1103      C2116   1.504       .  S
C1104      C2032   1.491       .  S
C1105      C2005   1.469       .  S
C1106      C1993   1.472       .  S
C1107      C2020   1.477       .  S
C1108      C2041   1.452       .  S
Zn1109     O1113   1.930       .  S
Zn1109     O1114   2.009       .  S
Zn1109     O1118   2.000       .  S
Zn1109     O1125   2.016       .  S
Zn1110     O1113   1.913       .  S
Zn1110     O1115   2.014       .  S
Zn1110     O1117   2.012       .  S
Zn1111     O1113   1.937       .  S
Zn1111     O1116   2.042       .  S
Zn1111     O1119   2.054       .  S
Zn1111     O1122   1.981       .  S
Zn1112     O1113   1.954       .  S
Zn1112     O1120   2.036       .  S
Zn1112     O1124   2.041       .  S
O1114      C1126   1.271       .  A
O1115      C1127   1.271       .  A
O1116      C1128   1.280       .  A
O1117      C1126   1.274       .  A
O1118      C1128   1.276       .  A
O1119      C1127   1.278       .  A
O1120      C1129   1.278       .  A
O1121      C1130   1.271       .  A
O1122      C1129   1.270       .  A
O1123      C1130   1.276       .  A
O1124      C1131   1.276       .  A
O1125      C1131   1.275       .  A
C1126      C4084   1.472   1_455  S
C1127      C1981   1.497       .  S
C1128      C2017   1.491       .  S
C1129      C1969   1.472       .  S
C1130      C2008   1.459       .  S
C1131      C1945   1.489       .  S
Zn1132     O1136   1.931       .  S
Zn1132     O1137   2.033       .  S
Zn1132     O1141   2.002       .  S
Zn1132     O1148   2.010       .  S
Zn1133     O1136   1.926       .  S
Zn1133     O1138   2.002       .  S
Zn1133     O1140   1.992       .  S
Zn1133     O1144   1.979       .  S
Zn1134     O1136   1.969       .  S
Zn1134     O1139   2.059       .  S
Zn1134     O1142   2.037       .  S
Zn1134     O1145   2.091       .  S
Zn1135     O1136   1.949       .  S
Zn1135     O1143   1.983       .  S
Zn1135     O1147   2.041       .  S
O1137      C1149   1.274       .  A
O1138      C1150   1.272       .  A
O1139      C1151   1.282       .  A
O1140      C1149   1.269       .  A
O1141      C1151   1.274       .  A
O1142      C1150   1.276       .  A
O1143      C1152   1.269       .  A
O1145      C1152   1.283       .  A
O1146      C1153   1.277       .  A
O1147      C1154   1.276       .  A
O1148      C1154   1.274       .  A
C1149      C1909   1.476       .  S
C1150      C2104   1.484       .  S
C1151      C1936   1.488       .  S
C1152      C1984   1.486       .  S
C1153      C1921   1.465       .  S
C1154      C2092   1.475       .  S
Zn1155     O1159   1.950       .  S
Zn1155     O1160   2.047       .  S
Zn1155     O1164   2.037       .  S
Zn1155     O1171   2.035       .  S
Zn1156     O1159   1.902       .  S
Zn1156     O1161   1.990       .  S
Zn1156     O1163   1.967       .  S
Zn1156     O1167   1.990       .  S
Zn1157     O1159   1.916       .  S
Zn1157     O1162   1.980       .  S
Zn1157     O1165   1.987       .  S
Zn1157     O1168   1.961       .  S
Zn1158     O1159   1.939       .  S
Zn1158     O1166   2.054       .  S
Zn1158     O1169   2.052       .  S
Zn1158     O1170   1.982       .  S
O1160      C1172   1.278       .  A
O1161      C1173   1.272       .  A
O1162      C1174   1.269       .  A
O1163      C1172   1.270       .  A
O1164      C1174   1.276       .  A
O1165      C1173   1.268       .  A
O1166      C1175   1.280       .  A
O1167      C1176   1.269       .  A
O1168      C1175   1.270       .  A
O1169      C1176   1.278       .  A
O1170      C1177   1.272       .  A
O1171      C1177   1.278       .  A
C1172      C1957   1.464       .  S
C1174      C1885   1.475       .  S
C1175      C1972   1.485       .  S
C1176      C1900   1.484       .  S
C1177      C2029   1.479       .  S
Zn1178     O1182   1.922       .  S
Zn1178     O1183   2.005       .  S
Zn1178     O1187   2.009       .  S
Zn1178     O1194   1.987       .  S
Zn1179     O1182   1.950       .  S
Zn1179     O1184   2.055       .  S
Zn1179     O1186   2.038       .  S
Zn1179     O1190   2.063       .  S
Zn1180     O1182   1.909       .  S
Zn1180     O1185   2.007       .  S
Zn1180     O1188   1.966       .  S
Zn1180     O1191   1.987       .  S
Zn1181     O1182   1.937       .  S
Zn1181     O1189   2.071       .  S
Zn1181     O1192   2.008       .  S
Zn1181     O1193   2.064       .  S
O1183      C1195   1.274       .  A
O1184      C1196   1.279       .  A
O1185      C1197   1.272       .  A
O1186      C1195   1.276       .  A
O1187      C1197   1.271       .  A
O1188      C1196   1.270       .  A
O1189      C1198   1.280       .  A
O1190      C1199   1.281       .  A
O1191      C1198   1.270       .  A
O1192      C1199   1.274       .  A
O1193      C1200   1.283       .  A
O1194      C1200   1.274       .  A
C1195      C1873   1.484       .  S
C1196      C2080   1.463       .  S
C1197      C4048   1.474       .  S
C1198      C1897   1.497       .  S
C1199      C1933   1.488       .  S
C1200      C2068   1.486       .  S
Zn1201     O1205   1.919       .  S
Zn1201     O1206   2.012       .  S
Zn1201     O1210   1.973       .  S
Zn1201     O1217   1.986       .  S
Zn1202     O3329   1.920       .  S
Zn1202     O1207   1.987       .  S
Zn1202     O1209   2.040       .  S
Zn1202     O1213   1.996       .  S
Zn1203     O1205   1.954   1_655  S
Zn1203     O1208   2.050   1_655  S
Zn1203     O3335   2.046       .  S
Zn1203     O1214   1.981   1_655  S
Zn1204     O1205   1.972       .  S
Zn1204     O1212   2.090       .  S
Zn1204     O3339   2.073   1_455  S
Zn1204     O1216   2.040       .  S
O1205     Zn3326   1.914   1_455  S
O1206      C3342   1.271       .  A
O1207      C1219   1.272       .  A
O1208      C1220   1.278       .  A
O1209      C1218   1.275       .  A
O1210      C1220   1.270       .  A
O1211     Zn3327   2.048       .  S
O1211      C1219   1.278       .  A
O1212      C1221   1.284       .  A
O1213      C1222   1.275       .  A
O1214      C1221   1.269       .  A
O1215     Zn3328   2.056       .  S
O1215      C1222   1.280       .  A
O1216      C1223   1.276       .  A
O1217      C1223   1.272       .  A
C1218      O3330   1.271       .  A
C1218      C3925   1.487       .  S
C1219      C1849   1.475       .  S
C1220      C1813   1.467       .  S
C1221      C1861   1.484       .  S
C1222      C1825   1.489       .  S
C1223      C1840   1.487       .  S
Zn1224     O1228   1.906       .  S
Zn1224     O1229   1.988       .  S
Zn1224     O1233   1.966       .  S
Zn1224     O1240   1.978       .  S
Zn1225     O1228   1.916       .  S
Zn1225     O1230   1.982       .  S
Zn1225     O1232   2.027       .  S
Zn1225     O1236   1.997       .  S
Zn1226     O1228   1.949       .  S
Zn1226     O1231   2.050       .  S
Zn1226     O3358   2.052   1_455  S
Zn1226     O1237   1.983       .  S
Zn1227     O1228   1.959       .  S
Zn1227     O1235   2.082       .  S
Zn1227     O1238   2.059       .  S
Zn1227     O1239   2.035       .  S
O1229      C1241   1.269       .  A
O1230      C3366   1.273   1_455  A
O1231      C1243   1.279       .  A
O1232      C1241   1.274       .  A
O1233      C1243   1.270       .  A
O1234     Zn3350   2.043       .  S
O1234      C1242   1.276       .  A
O1235      C1244   1.282       .  A
O1236      C1245   1.273       .  A
O1237      C1244   1.269       .  A
O1238      C1245   1.282       .  A
O1239      C1246   1.275       .  A
O1240      C1246   1.270       .  A
C1241      C1996   1.475       .  S
C1242      O3354   1.274       .  A
C1242      C1780   1.494       .  S
C1243      C1768   1.471       .  S
C1244      C1864   1.485       .  S
C1245      C1753   1.487       .  S
C1246      C1792   1.479       .  S
Zn1247     O1251   1.940       .  S
Zn1247     O1252   2.027       .  S
Zn1247     O1256   2.045       .  S
Zn1247     O1263   1.971       .  S
Zn1248     O1251   1.912       .  S
Zn1248     O1253   1.999       .  S
Zn1248     O1255   1.974       .  S
Zn1248     O1259   1.996       .  S
Zn1249     O1251   1.909       .  S
Zn1249     O1254   1.979       .  S
Zn1249     O1257   2.025       .  S
Zn1249     O1260   1.982       .  S
Zn1250     O1251   1.957       .  S
Zn1250     O1258   2.062       .  S
Zn1250     O1261   2.041       .  S
Zn1250     O1262   2.102       .  S
O1252      C1264   1.277       .  A
O1253      C1265   1.270       .  A
O1254      C1266   1.269       .  A
O1255      C1264   1.272       .  A
O1256      C1266   1.276       .  A
O1257      C1265   1.273       .  A
O1258      C1267   1.282       .  A
O1259      C1268   1.271       .  A
O1260      C1267   1.274       .  A
O1261      C1268   1.277       .  A
O1262      C1269   1.284       .  A
O1263      C1269   1.268       .  A
C1264      C1789   1.460       .  S
C1265      C1888   1.474       .  S
C1266      C1717   1.474       .  S
C1268      C1732   1.484       .  S
C1269      C1741   1.499       .  S
Zn1270     O1274   1.973       .  S
Zn1270     O1275   2.025       .  S
Zn1270     O1279   2.096       .  S
Zn1270     O1286   2.070       .  S
Zn1271     O1274   1.926       .  S
Zn1271     O1276   1.983       .  S
Zn1271     O1278   2.001       .  S
Zn1271     O1282   2.006       .  S
Zn1272     O1274   1.950       .  S
Zn1272     O1277   1.981       .  S
Zn1272     O1280   2.037       .  S
Zn1272     O1283   2.051       .  S
Zn1273     O1274   1.928       .  S
Zn1273     O1281   1.999       .  S
Zn1273     O1284   2.030       .  S
Zn1273     O1285   1.996       .  S
O1275      C1287   1.274       .  A
O1276      C1288   1.272       .  A
O1277      C1289   1.270       .  A
O1278      C1287   1.273       .  A
O1279      C1289   1.283       .  A
O1280      C1288   1.277       .  A
O1281      C1290   1.273       .  A
O1282      C1291   1.272       .  A
O1283      C1290   1.277       .  A
O1284      C1291   1.273       .  A
O1285      C1292   1.274       .  A
O1286      C1292   1.283       .  A
C1287      C1816   1.478       .  S
C1288      C1693   1.471       .  S
C1289      C1744   1.502       .  S
C1290      C1828   1.474       .  S
C1291      C1681   1.487       .  S
C1292      C1705   1.491       .  S
Zn1293     O1297   1.932       .  S
Zn1293     O1298   2.066       .  S
Zn1293     O1302   2.067       .  S
Zn1293     O1309   1.988       .  S
Zn1294     O1297   1.909       .  S
Zn1294     O1301   1.972       .  S
Zn1294     O1305   1.999       .  S
Zn1295     O1300   2.003       .  S
Zn1295     O1303   2.033       .  S
Zn1295     O1306   1.968       .  S
Zn1296     O1297   1.954       .  S
Zn1296     O1307   2.053       .  S
Zn1296     O1308   2.075       .  S
O1298      C1310   1.283       .  A
O1299      C1311   1.271       .  A
O1300      C1312   1.272       .  A
O1301      C1310   1.273       .  A
O1303      C1311   1.275       .  A
O1304      C1313   1.281       .  A
O1305      C1314   1.273       .  A
O1306      C1313   1.271       .  A
O1307      C1314   1.277       .  A
O1308      C1315   1.282       .  A
O1309      C1315   1.272       .  A
C1310      C1852   1.487       .  S
C1311      C1696   1.477       .  S
C1312      C1669   1.502       .  S
C1313      C1837   1.464       .  S
C1314      C1657   1.488       .  S
C1315      C1708   1.487       .  S
Zn1316     O1320   1.970       .  S
Zn1316     O1321   2.053       .  S
Zn1316     O1332   2.053       .  S
Zn1317     O1320   1.920       .  S
Zn1317     O1322   1.973       .  S
Zn1317     O1324   1.995       .  S
Zn1317     O1328   1.989       .  S
Zn1318     O1320   1.950       .  S
Zn1318     O1326   2.068       .  S
Zn1318     O1329   2.070       .  S
Zn1319     O1320   1.928       .  S
Zn1319     O1327   2.001       .  S
Zn1319     O1330   2.030       .  S
Zn1319     O1331   1.972       .  S
O1321      C1333   1.277       .  A
O1322      C1334   1.272       .  A
O1323      C1335   1.272       .  A
O1324      C1333   1.270       .  A
O1325      C1335   1.281       .  A
O1326      C1334   1.282       .  A
O1327      C1336   1.271       .  A
O1328      C1337   1.268       .  A
O1329      C1336   1.280       .  A
O1330      C1337   1.274       .  A
O1331      C1338   1.271       .  A
O1332      C1338   1.280       .  A
C1333      C1948   1.490       .  S
C1334      C3844   1.488   1_455  S
C1335      C1756   1.489       .  S
C1336      C1672   1.491       .  S
C1337      C1765   1.473       .  S
C1338      C1729   1.466       .  S
Zn1339     O1343   1.913       .  S
Zn1339     O1344   2.028       .  S
Zn1339     O1348   1.995       .  S
Zn1339     O1355   1.988       .  S
Zn1340     O1343   1.918       .  S
Zn1340     O1345   2.004       .  S
Zn1340     O1347   2.000       .  S
Zn1340     O1351   1.982       .  S
Zn1341     O1343   1.954       .  S
Zn1341     O1346   2.068       .  S
Zn1341     O1349   2.018       .  S
Zn1341     O1352   2.089       .  S
Zn1342     O1343   1.943       .  S
Zn1342     O1350   1.977       .  S
Zn1342     O1353   2.041       .  S
Zn1342     O1354   2.041       .  S
O1344      C1356   1.274       .  A
O1345      C1357   1.273       .  A
O1346      C1358   1.282       .  A
O1347      C1356   1.270       .  A
O1348      C1358   1.273       .  A
O1349      C1357   1.276       .  A
O1350      C1359   1.268       .  A
O1351      C1360   1.272       .  A
O1352      C1359   1.283       .  A
O1353      C1360   1.278       .  A
O1354      C1361   1.277       .  A
O1355      C1361   1.272       .  A
C1356      C1876   1.473       .  S
C1357      C1633   1.480       .  S
C1358      C3724   1.489       .  S
C1359      C1648   1.482       .  S
C1360      C1609   1.467       .  S
C1361      C1624   1.478       .  S
Zn1362     O1366   1.921       .  S
Zn1362     O1367   1.990       .  S
Zn1362     O1371   2.001       .  S
Zn1362     O1378   1.981       .  S
Zn1363     O1366   1.961       .  S
Zn1363     O1368   2.050       .  S
Zn1363     O1370   2.014       .  S
Zn1363     O1374   2.082       .  S
Zn1364     O1366   1.924       .  S
Zn1364     O1369   2.035       .  S
Zn1364     O1372   2.011       .  S
Zn1364     O1375   2.016       .  S
Zn1365     O1366   1.938       .  S
Zn1365     O1373   2.024       .  S
Zn1365     O1376   1.982       .  S
Zn1365     O1377   2.023       .  S
O1367      C1379   1.271       .  A
O1368      C1380   1.281       .  A
O1369      C1381   1.275       .  A
O1370      C1379   1.273       .  A
O1371      C1381   1.270       .  A
O1372      C1380   1.276       .  A
O1373      C1382   1.275       .  A
O1374      C1383   1.281       .  A
O1375      C1382   1.275       .  A
O1376      C1383   1.269       .  A
O1377      C1384   1.275       .  A
O1378      C1384   1.272       .  A
C1379      C1576   1.471       .  S
C1380      C1561   1.483       .  S
C1381      C1684   1.487       .  S
C1382      C1585   1.473       .  S
C1383      C1645   1.485       .  S
C1384      C1549   1.461       .  S
Zn1385     O1389   1.906       .  S
Zn1385     O1390   2.012       .  S
Zn1385     O1394   1.975       .  S
Zn1385     O1401   1.993       .  S
Zn1386     O1389   1.922       .  S
Zn1386     O1391   2.008       .  S
Zn1386     O1393   2.011       .  S
Zn1386     O1397   2.007       .  S
Zn1387     O1389   1.945       .  S
Zn1387     O1392   2.050       .  S
Zn1387     O1395   2.033       .  S
Zn1388     O1389   1.918       .  S
Zn1388     O1396   2.005       .  S
Zn1388     O1399   2.040       .  S
Zn1388     O1400   2.054       .  S
O1390      C1402   1.273       .  A
O1391      C1403   1.275       .  A
O1392      C1404   1.279       .  A
O1393      C1402   1.271       .  A
O1394      C1404   1.271       .  A
O1395      C1403   1.276       .  A
O1397      C1406   1.277       .  A
O1398      C1405   1.280       .  A
O1399      C1406   1.280       .  A
O1400      C1407   1.277       .  A
O1401      C1407   1.271       .  A
C1402      C1612   1.474       .  S
C1403      C1912   1.481       .  S
C1404      C1528   1.463       .  S
C1405      C1597   1.496       .  S
C1406      C1513   1.492       .  S
C1407      C1537   1.495       .  S
Zn1408     O1412   1.956       .  S
Zn1408     O1424   2.038       .  S
Zn1409     O1412   1.916       .  S
Zn1409     O1420   1.993       .  S
Zn1410     O1415   1.990       .  S
Zn1410     O1418   2.055       .  S
Zn1410     O1421   2.052       .  S
Zn1411     O1412   1.916       .  S
Zn1411     O1419   1.992       .  S
Zn1411     O1422   2.019       .  S
Zn1411     O1423   1.967       .  S
O1413      C1425   1.277   1_545  A
O1414      C1426   1.273       .  A
O1415      C1427   1.271       .  A
O1416      C1425   1.271   1_545  A
O1417      C1427   1.279       .  A
O1418      C1426   1.281       .  A
O1419      C1428   1.269       .  A
O1420      C1429   1.268       .  A
O1422      C1429   1.274       .  A
O1423      C1430   1.271       .  A
O1424      C1430   1.277       .  A
C1426      C1588   1.489       .  S
C1427      C1492   1.480       .  S
C1428      C1540   1.486       .  S
C1429      C1501   1.467       .  S
C1430      C1573   1.461       .  S
Zn1431     O1435   1.932       .  S
Zn1431     O1436   1.994       .  S
Zn1431     O1440   2.066       .  S
Zn1431     O1447   2.082       .  S
Zn1432     O1435   1.952       .  S
Zn1432     O1437   2.046       .  S
Zn1432     O1439   2.062       .  S
Zn1432     O3567   2.045   1_455  S
Zn1433     O1435   1.921       .  S
Zn1433     O1438   1.983       .  S
Zn1433     O1441   2.007       .  S
Zn1433     O3568   2.010   1_455  S
Zn1434     O3559   1.900       .  S
Zn1434     O1442   2.002       .  S
Zn1434     O1445   1.965       .  S
Zn1434     O1446   1.994       .  S
O1435     Zn3558   1.900   1_455  S
O1436      C1448   1.272       .  A
O1437      C1449   1.277       .  A
O1438      C1450   1.271       .  A
O1439      C1448   1.281       .  A
O1440      C1450   1.285       .  A
O1441      C1449   1.273       .  A
O1442      C1451   1.271       .  A
O1443     Zn3556   2.046       .  S
O1443      C1452   1.278       .  A
O1444     Zn3557   2.001       .  S
O1444      C1451   1.270       .  A
O1445      C1452   1.270       .  A
O1446      C1453   1.270       .  A
O1447      C3577   1.281   1_455  A
C1448      C1564   1.491       .  S
C1449      C1804   1.483       .  S
C1450      C1489   1.496       .  S
C1451      C1552   1.470       .  S
C1452      C1504   1.459       .  S
C1453      O3571   1.281       .  A
C1453      C1477   1.496       .  S
Zn1454     O1458   1.942       .  S
Zn1454     O3583   1.985       .  S
Zn1454     O1463   2.073       .  S
Zn1454     O1470   2.078       .  S
Zn1455     O1458   1.958       .  S
Zn1455     O1460   2.049       .  S
Zn1455     O3586   2.057       .  S
Zn1455     O1466   2.048       .  S
Zn1456     O1458   1.913       .  S
Zn1456     O1461   1.973       .  S
Zn1456     O1464   2.006       .  S
Zn1456     O1467   2.002       .  S
Zn1457     O1458   1.906       .  S
Zn1457     O1465   2.017       .  S
Zn1457     O1468   1.961       .  S
Zn1457     O1469   1.997       .  S
O1459     Zn3578   1.984       .  S
O1459      C1471   1.272   1_655  A
O1460      C1472   1.277       .  A
O1461      C1473   1.274       .  A
O1462     Zn3579   2.061   1_455  S
O1462      C1471   1.279       .  A
O1463      C1473   1.284       .  A
O1464      C1472   1.272       .  A
O1465      C1474   1.274       .  A
O1466      C1475   1.279       .  A
O1467      C1474   1.270       .  A
O1468      C1475   1.270       .  A
O1469      C1476   1.271       .  A
O1470      C1476   1.281       .  A
C1471      C1516   1.496       .  S
C1472      C2056   1.480       .  S
C1474      C1525   1.475       .  S
C1475      C1636   1.460       .  S
C1476      C1480   1.497       .  S
C1477      C3602   1.406       .  A
C1477      C1482   1.417       .  A
C1478      C3601   1.407       .  A
C1478      C3603   1.408       .  A
C1478      H1487   1.083   1_655  S
C1479      C3602   1.408       .  A
C1479      C1480   1.418       .  A
C1479      S3607   1.802       .  S
C1480      C1481   1.407       .  A
C1481      C1482   1.407       .  A
C1481      H1488   1.082       .  S
C1482      S1484   1.810       .  S
S1483      C3603   1.802   1_455  S
S1483      H1486   1.408       .  S
S1484      H1485   1.407       .  S
C1489      C1490   1.408       .  A
C1489      C1494   1.427       .  A
C1490      C1491   1.402       .  A
C1490      H1499   1.084       .  S
C1491      C1492   1.414       .  A
C1491      S1495   1.804       .  S
C1492      C1493   1.398       .  A
C1493      C1494   1.397       .  A
C1493      H1500   1.085       .  S
C1494      S1496   1.803       .  S
S1495      H1498   1.407       .  S
S1496      H1497   1.408       .  S
C1501      C1502   1.403       .  A
C1501      C1506   1.410       .  A
C1502      C1503   1.397       .  A
C1502      H1511   1.084       .  S
C1503      C1504   1.410       .  A
C1503      S1507   1.805       .  S
C1504      C1505   1.401       .  A
C1505      C1506   1.397       .  A
C1505      H1512   1.085       .  S
C1506      S1508   1.804       .  S
S1507      H1510   1.407       .  S
S1508      H1509   1.407       .  S
C1513      C1514   1.410       .  A
C1513      C1518   1.414       .  A
C1514      C1515   1.403       .  A
C1514      H1523   1.084       .  S
C1515      C1516   1.416       .  A
C1515      S1519   1.800       .  S
C1516      C1517   1.411       .  A
C1517      C1518   1.398       .  A
C1517      H1524   1.083       .  S
C1518      S1520   1.801       .  S
S1519      H3646   1.407       .  S
S1520      H1521   1.408       .  S
H1522      S3643   1.407       .  S
C1525      C1526   1.406       .  A
C1525      C1530   1.412       .  A
C1526      C1527   1.400       .  A
C1526      H1535   1.084       .  S
C1527      C1528   1.409       .  A
C1527      S1531   1.804       .  S
C1528      C1529   1.402       .  A
C1529      C1530   1.397       .  A
C1529      H1536   1.085       .  S
C1530      S1532   1.804       .  S
S1531      H1534   1.406       .  S
S1532      H1533   1.407       .  S
C1537      C1538   1.409       .  A
C1537      C1542   1.418       .  A
C1538      C1539   1.400       .  A
C1538      H1547   1.083       .  S
C1539      C1540   1.414       .  A
C1539      S1543   1.804       .  S
C1540      C1541   1.406       .  A
C1541      C1542   1.404       .  A
S1543      H1546   1.407       .  S
C1549      C1550   1.401       .  A
C1549      C1554   1.408       .  A
C1550      C1551   1.398       .  A
C1550      H1559   1.084       .  S
C1551      C1552   1.413       .  A
C1551      S1555   1.804       .  S
C1552      C1553   1.404       .  A
C1553      C1554   1.396       .  A
C1553      H1560   1.084       .  S
C1554      S1556   1.804       .  S
S1555      H1558   1.407       .  S
S1556      H1557   1.407       .  S
C1561      C1562   1.400       .  A
C1561      C1566   1.416       .  A
C1562      C1563   1.405       .  A
C1562      H1571   1.083       .  S
C1563      C1564   1.422       .  A
C1563      S1567   1.810       .  S
C1564      C1565   1.405       .  A
C1565      C1566   1.402       .  A
C1565      H1572   1.083       .  S
C1566      S1568   1.804       .  S
S1567      H1570   1.407       .  S
S1568      H1569   1.408       .  S
C1573      C1574   1.398       .  A
C1573      C1578   1.412       .  A
C1574      C1575   1.399       .  A
C1574      H1583   1.084       .  S
C1575      C1576   1.416       .  A
C1575      S1579   1.804       .  S
C1576      C1577   1.400       .  A
C1577      C1578   1.394       .  A
C1577      H1584   1.084       .  S
C1578      S1580   1.806       .  S
S1579      H1582   1.407       .  S
S1580      H1581   1.407       .  S
C1585      C1586   1.404       .  A
C1585      C1590   1.407       .  A
C1586      C1587   1.404       .  A
C1586      H1595   1.085       .  S
C1587      C1588   1.416       .  A
C1587      S1591   1.801       .  S
C1588      C1589   1.410       .  A
C1589      C1590   1.394       .  A
C1589      H1596   1.084       .  S
C1590      S1592   1.802       .  S
S1591      H1594   1.408       .  S
S1592      H1593   1.407       .  S
C1597      C1598   1.411       .  A
C1597      C1602   1.416       .  A
C1598      C1599   1.404       .  A
C1598      H1607   1.084       .  S
C1599      C1600   1.413       .  A
C1599      S1603   1.801       .  S
C1600      C3482   1.491   1_455  S
C1600      C1601   1.408       .  A
C1601      C1602   1.402       .  A
C1601      H1608   1.084       .  S
C1602      S1604   1.801       .  S
S1603      H3730   1.407   1_455  S
S1604      H1605   1.408       .  S
H1606      S3727   1.407       .  S
C1609      C1610   1.402       .  A
C1609      C1614   1.410       .  A
C1610      C1611   1.399       .  A
C1610      H1619   1.084       .  S
C1611      C1612   1.413       .  A
C1611      S1615   1.803       .  S
C1612      C1613   1.404       .  A
C1613      C1614   1.399       .  A
C1613      H1620   1.084       .  S
C1614      S1616   1.804       .  S
S1615      H1618   1.407       .  S
S1616      H1617   1.407       .  S
C1621      C1622   1.406       .  A
C1621      C1626   1.415       .  A
C1622      C1623   1.391       .  A
C1622      H1631   1.084       .  S
C1623      C1624   1.411       .  A
C1623      S1627   1.806       .  S
C1624      C1625   1.408       .  A
C1625      C1626   1.408       .  A
C1625      H1632   1.084       .  S
C1626      S1628   1.801       .  S
S1627      H1630   1.407       .  S
C1633      C1634   1.402       .  A
C1633      C1638   1.419       .  A
C1634      C1635   1.394       .  A
C1634      H1643   1.083       .  S
C1635      C1636   1.410       .  A
C1635      S1639   1.805       .  S
C1636      C1637   1.399       .  A
C1637      C1638   1.401       .  A
C1637      H1644   1.083       .  S
C1638      S1640   1.803       .  S
S1639      H1642   1.406       .  S
S1640      H1641   1.408       .  S
C1645      C1646   1.404       .  A
C1645      C1650   1.417       .  A
C1646      C1647   1.399       .  A
C1646      H1655   1.084       .  S
C1647      C1648   1.414       .  A
C1647      S1651   1.806       .  S
C1648      C1649   1.406       .  A
C1649      C1650   1.410       .  A
C1649      H1656   1.084       .  S
C1650      S1652   1.803       .  S
S1651      H1654   1.406       .  S
S1652      H1653   1.406       .  S
C1657      C1662   1.416       .  A
C1658      C1659   1.397   1_554  A
C1658      H1667   1.084       .  S
C1659      S1663   1.806       .  S
C1660      C1661   1.407       .  A
C1661      C1662   1.405   1_556  A
C1661      H1668   1.083       .  S
C1662      S1664   1.799       .  S
S1663      H1666   1.408       .  S
S1664      H1665   1.405       .  S
C1669      C1670   1.410       .  A
C1669      C1674   1.421       .  A
C1670      C1671   1.403       .  A
C1670      H1679   1.083       .  S
C1671      C1672   1.414       .  A
C1671      S1675   1.804       .  S
C1672      C1673   1.406       .  A
C1673      C1674   1.408       .  A
C1673      H1680   1.084       .  S
S1675      H1678   1.407       .  S
S1676      H1677   1.408       .  S
C1681      C1682   1.406       .  A
C1681      C1686   1.416       .  A
C1682      C1683   1.398   1_554  A
C1682      H1691   1.084       .  S
C1683      C1684   1.414       .  A
C1683      S1687   1.800       .  S
C1684      C1685   1.408       .  A
C1685      C1686   1.402   1_556  A
C1685      H1692   1.084       .  S
C1686      S1688   1.803       .  S
S1687      H1690   1.407       .  S
S1688      H1689   1.407       .  S
C1693      C1694   1.404       .  A
C1693      C1698   1.411       .  A
C1694      C1695   1.402       .  A
C1694      H1703   1.084       .  S
C1695      C1696   1.413       .  A
C1695      S1699   1.803       .  S
C1696      C1697   1.404       .  A
C1697      C1698   1.398       .  A
C1697      H1704   1.084       .  S
C1698      S1700   1.805       .  S
S1699      H1702   1.407       .  S
S1700      H1701   1.407       .  S
C1705      C1706   1.410       .  A
C1705      C1710   1.413       .  A
C1706      C1707   1.402       .  A
C1706      H1715   1.084       .  S
C1707      C1708   1.412       .  A
C1707      S1711   1.800       .  S
C1708      C1709   1.409       .  A
C1709      C1710   1.403       .  A
C1709      H1716   1.084       .  S
C1710      S1712   1.800       .  S
S1711      H1714   1.407       .  S
S1712      H1713   1.407       .  S
C1717      C1718   1.406       .  A
C1717      C1722   1.408       .  A
C1718      C1719   1.407       .  A
C1718      H1727   1.084       .  S
C1719      C1720   1.417       .  A
C1719      S1723   1.800       .  S
C1720      C3458   1.489       .  S
C1720      C1721   1.408       .  A
C1721      C1722   1.391       .  A
C1721      H1728   1.084       .  S
C1722      S1724   1.804       .  S
S1723      H3850   1.407       .  S
S1724      H1725   1.406       .  S
H1726      S3847   1.407       .  S
C1729      C1730   1.399       .  A
C1729      C1734   1.411       .  A
C1730      C1731   1.405       .  A
C1730      H1739   1.083       .  S
C1731      C1732   1.420       .  A
C1731      S1735   1.809       .  S
C1732      C1733   1.403       .  A
C1733      C1734   1.397       .  A
C1733      H1740   1.084       .  S
C1734      S1736   1.806       .  S
S1735      H1738   1.407       .  S
S1736      H1737   1.407       .  S
C1741      C1742   1.415       .  A
C1741      C1746   1.410       .  A
C1742      C1743   1.405       .  A
C1742      H1751   1.082       .  S
C1743      C1744   1.412       .  A
C1743      S1747   1.799       .  S
C1744      C1745   1.416       .  A
C1745      C1746   1.405       .  A
C1745      H1752   1.083       .  S
C1746      S1748   1.798       .  S
S1747      H1750   1.407       .  S
S1748      H1749   1.407       .  S
C1753      C1754   1.402       .  A
C1753      C1758   1.419       .  A
C1754      C1755   1.402       .  A
C1754      H1763   1.084       .  S
C1755      C1756   1.420       .  A
C1755      S1759   1.804       .  S
C1756      C1757   1.403       .  A
C1757      C1758   1.401       .  A
C1757      H1764   1.084       .  S
C1758      S1760   1.804       .  S
S1759      H1762   1.407       .  S
S1760      H1761   1.407       .  S
C1765      C1766   1.402       .  A
C1765      C1770   1.412       .  A
C1766      C1767   1.401       .  A
C1766      H1775   1.084       .  S
C1767      C1768   1.414       .  A
C1767      S1771   1.801       .  S
C1768      C1769   1.403       .  A
C1769      C1770   1.397       .  A
C1769      H1776   1.085       .  S
C1770      S1772   1.802       .  S
S1771      H1774   1.405   1_455  S
S1772      H1773   1.406       .  S
C1777      C1778   1.403       .  A
C1777      C1782   1.408       .  A
C1778      C1779   1.409       .  A
C1778      H1787   1.084       .  S
C1779      C1780   1.421       .  A
C1779      S1783   1.800       .  S
C1780      C1781   1.409       .  A
C1781      C1782   1.390       .  A
C1781      H1788   1.083       .  S
S1783      H1786   1.407       .  S
S1784      H1785   1.407       .  S
C1789      C1790   1.402       .  A
C1789      C1794   1.406       .  A
C1790      C1791   1.399       .  A
C1790      H1799   1.082       .  S
C1791      C1792   1.414       .  A
C1791      S1795   1.803       .  S
C1792      C1793   1.409       .  A
C1793      C1794   1.396       .  A
C1793      H1800   1.082       .  S
C1794      S1796   1.804       .  S
S1795      H1798   1.408       .  S
S1796      H1797   1.407       .  S
C1801      C3342   1.484       .  S
C1801      C3926   1.402   1_455  A
C1801      C1806   1.416       .  A
C1802      C3925   1.403       .  A
C1802      C1803   1.401   1_554  A
C1802      H1811   1.084       .  S
C1803      C3928   1.417       .  A
C1803      S1807   1.804       .  S
C1804      C3927   1.417   1_455  A
C1804      C1805   1.403       .  A
C1805      C1806   1.403   1_556  A
C1805      H1812   1.084       .  S
C1806      S1808   1.800       .  S
S1807      H1810   1.407       .  S
S1808      H1809   1.407       .  S
C1813      C1814   1.403       .  A
C1813      C1818   1.407       .  A
C1814      C1815   1.401       .  A
C1814      H1823   1.084       .  S
C1815      C1816   1.415       .  A
C1815      S1819   1.803       .  S
C1816      C1817   1.405       .  A
C1817      C1818   1.397       .  A
C1817      H1824   1.084       .  S
C1818      S1820   1.800       .  S
S1819      H1822   1.407       .  S
S1820      H1821   1.407       .  S
C1825      C1826   1.408       .  A
C1825      C1830   1.417       .  A
C1826      C1827   1.396       .  A
C1826      H1835   1.084       .  S
C1827      C1828   1.408       .  A
C1827      S1831   1.805       .  S
C1828      C1829   1.404       .  A
C1829      C1830   1.406       .  A
C1829      H1836   1.084       .  S
C1830      S1832   1.801       .  S
S1831      H1834   1.407       .  S
S1832      H1833   1.407       .  S
C1837      C1838   1.403       .  A
C1837      C1842   1.406       .  A
C1838      C1839   1.401       .  A
C1838      H1847   1.084       .  S
C1839      C1840   1.417       .  A
C1839      S1843   1.802       .  S
C1840      C1841   1.410       .  A
C1841      C1842   1.397       .  A
C1841      H1848   1.083       .  S
C1842      S1844   1.804       .  S
S1843      H1846   1.408       .  S
S1844      H1845   1.406       .  S
C1849      C1850   1.406       .  A
C1849      C1854   1.409       .  A
C1850      C1851   1.407       .  A
C1850      H1859   1.084       .  S
C1851      C1852   1.416       .  A
C1851      S1855   1.801       .  S
C1852      C1853   1.408       .  A
C1853      C1854   1.392       .  A
C1853      H1860   1.084       .  S
C1854      S1856   1.806       .  S
S1855      H1858   1.407       .  S
S1856      H1857   1.407       .  S
C1861      C1862   1.405       .  A
C1861      C1866   1.415   1_455  A
C1862      C1863   1.407       .  A
C1862      H1871   1.084       .  S
C1863      C1864   1.414       .  A
C1863      S1867   1.799       .  S
C1864      C1865   1.405       .  A
C1865      C1866   1.401   1_455  A
C1865      H1872   1.084   1_455  S
C1866      S3992   1.806       .  S
S1867      H1870   1.406       .  S
S1868      C3990   1.805       .  S
S1868      H1869   1.406       .  S
C1873      C1874   1.407       .  A
C1873      C1878   1.416       .  A
C1874      C1875   1.398       .  A
C1874      H1883   1.084       .  S
C1875      C1876   1.410       .  A
C1875      S1879   1.804       .  S
C1876      C1877   1.404       .  A
C1877      C1878   1.402       .  A
C1877      H1884   1.084       .  S
C1878      S1880   1.802       .  S
S1879      H1882   1.407       .  S
S1880      H1881   1.407       .  S
C1885      C1886   1.402       .  A
C1885      C1890   1.415       .  A
C1886      C1887   1.399       .  A
C1886      H1895   1.084       .  S
C1887      C1888   1.413       .  A
C1887      S1891   1.801       .  S
C1888      C1889   1.402       .  A
C1889      C1890   1.397       .  A
C1889      H1896   1.085       .  S
C1890      S1892   1.805       .  S
S1891      H1894   1.407       .  S
S1892      H1893   1.407       .  S
C1897      C1898   1.410       .  A
C1897      C1902   1.417       .  A
C1898      C1899   1.402       .  A
C1898      H1907   1.084       .  S
C1899      C1900   1.414       .  A
C1899      S1903   1.804       .  S
C1900      C1901   1.403       .  A
C1901      C1902   1.403       .  A
C1901      H1908   1.084       .  S
C1902      S1904   1.793       .  S
S1903      H1906   1.407       .  S
S1904      H1905   1.407       .  S
C1909      C1910   1.406       .  A
C1909      C1914   1.410       .  A
C1910      C1911   1.401       .  A
C1910      H1919   1.084       .  S
C1911      C1912   1.412       .  A
C1911      S1915   1.798       .  S
C1912      C1913   1.406       .  A
C1913      C1914   1.398       .  A
C1913      H1920   1.084       .  S
C1914      S1916   1.800       .  S
S1915      H1918   1.407       .  S
S1916      H1917   1.406       .  S
C1921      C1922   1.401       .  A
C1921      C1926   1.410       .  A
C1922      C1923   1.398       .  A
C1922      H1931   1.084       .  S
C1923      C1924   1.413       .  A
C1923      S1927   1.803       .  S
C1924      C3321   1.475   1_455  S
C1924      C1925   1.405       .  A
C1925      C1926   1.398       .  A
C1925      H1932   1.084       .  S
C1926      S1928   1.805       .  S
S1927      H4054   1.407       .  S
S1928      H1929   1.407       .  S
H1930      S4051   1.407       .  S
C1933      C1934   1.402       .  A
C1933      C1938   1.417       .  A
C1934      C1935   1.402       .  A
C1934      H1943   1.084       .  S
C1935      C1936   1.420       .  A
C1935      S1939   1.804       .  S
C1936      C1937   1.402       .  A
C1937      C1938   1.401       .  A
C1937      H1944   1.084       .  S
C1938      S1940   1.797       .  S
S1939      H1942   1.408       .  S
S1940      H1941   1.406       .  S
C1945      C1946   1.404       .  A
C1945      C1950   1.416       .  A
C1946      C1947   1.398       .  A
C1946      H1955   1.084       .  S
C1947      C1948   1.417       .  A
C1947      S1951   1.804       .  S
C1948      C1949   1.407       .  A
C1949      C1950   1.406       .  A
C1949      H1956   1.084       .  S
C1950      S1952   1.801       .  S
S1951      H1954   1.407       .  S
S1952      H1953   1.406       .  S
C1957      C1958   1.402       .  A
C1957      C1962   1.410       .  A
C1958      C1959   1.395       .  A
C1958      H1967   1.085       .  S
C1959      C1960   1.411       .  A
C1959      S1963   1.805       .  S
C1960      C3250   1.472       .  S
C1960      C1961   1.405       .  A
C1961      C1962   1.401       .  A
C1961      H4092   1.084       .  S
C1962      S1964   1.803       .  S
S1963      H4090   1.407       .  S
S1964      H1965   1.405       .  S
H1966      S4087   1.407   1_455  S
H1968      C4085   1.084       .  S
C1969      C1970   1.407       .  A
C1969      C1974   1.408       .  A
C1970      C1971   1.401       .  A
C1970      H1979   1.084       .  S
C1971      C1972   1.413       .  A
C1971      S1975   1.801       .  S
C1972      C1973   1.410       .  A
C1973      C1974   1.393       .  A
C1973      H1980   1.083       .  S
C1974      S1976   1.803       .  S
S1975      H1978   1.407       .  S
S1976      H1977   1.407       .  S
C1981      C1982   1.406       .  A
C1981      C1986   1.421       .  A
C1982      H1991   1.084       .  S
C1983      C1984   1.416       .  A
C1983      S1987   1.805       .  S
C1984      C1985   1.404       .  A
C1985      H1992   1.084       .  S
C1986      S1988   1.802       .  S
S1987      H1990   1.407       .  S
S1988      H1989   1.408       .  S
C1993      C1994   1.400       .  A
C1993      C1998   1.414       .  A
C1994      C1995   1.395       .  A
C1994      H2003   1.084       .  S
C1995      C1996   1.415       .  A
C1995      S1999   1.805       .  S
C1996      C1997   1.404       .  A
C1997      C1998   1.401       .  A
C1997      H2004   1.084       .  S
C1998      S2000   1.804       .  S
S1999      H2002   1.407       .  S
S2000      H2001   1.407       .  S
C2005      C2006   1.399       .  A
C2005      C2010   1.417       .  A
C2006      C2007   1.392       .  A
C2006      H2015   1.085       .  S
C2007      C2008   1.410       .  A
C2007      S2011   1.805       .  S
C2008      C2009   1.400       .  A
C2009      C2010   1.400       .  A
C2009      H2016   1.085       .  S
C2010      S2012   1.804       .  S
S2012      H2013   1.407       .  S
C2017      C2018   1.410       .  A
C2017      C2022   1.417       .  A
C2018      C2019   1.398       .  A
C2018      H2027   1.083       .  S
C2019      C2020   1.411       .  A
C2019      S2023   1.805       .  S
C2020      C2021   1.404       .  A
C2021      C2022   1.401       .  A
C2021      H2028   1.084       .  S
C2022      S2024   1.801       .  S
S2023      H2026   1.407       .  S
S2024      H2025   1.408       .  S
C2029      C2030   1.406       .  A
C2029      C2034   1.411       .  A
C2030      C2031   1.399       .  A
C2030      H2039   1.084       .  S
C2031      C2032   1.417       .  A
C2031      S2035   1.801       .  S
C2032      C2033   1.412       .  A
C2033      C2034   1.395       .  A
C2033      H2040   1.083       .  S
C2034      S2036   1.804       .  S
S2035      H2038   1.408       .  S
S2036      H2037   1.408       .  S
C2041      C2042   1.400       .  A
C2041      C2046   1.408       .  A
C2042      C2043   1.396       .  A
C2042      H2051   1.084       .  S
C2043      C2044   1.413       .  A
C2043      S2047   1.804       .  S
C2044      C2045   1.400       .  A
C2045      C2046   1.391       .  A
C2045      H2052   1.085       .  S
C2046      S2048   1.805       .  S
S2048      H2049   1.405       .  S
C2053      C2054   1.409       .  A
C2053      C2058   1.416       .  A
C2054      C2055   1.404       .  A
C2054      H2063   1.084       .  S
C2055      C2056   1.412       .  A
C2055      S2059   1.803       .  S
C2056      C2057   1.404       .  A
C2057      C2058   1.400       .  A
C2057      H2064   1.084       .  S
C2058      S2060   1.803       .  S
S2059      H2062   1.406       .  S
S2060      H2061   1.407       .  S
C2065      C2066   1.406       .  A
C2065      C2070   1.408       .  A
C2066      C2067   1.401       .  A
C2066      H2075   1.084       .  S
C2067      C2068   1.412       .  A
C2067      S2071   1.800       .  S
C2068      C2069   1.411       .  A
C2069      C2070   1.401       .  A
C2069      H2076   1.084       .  S
C2070      S2072   1.803       .  S
S2071      H2074   1.407       .  S
S2072      H2073   1.406       .  S
C2077      C2078   1.410       .  A
C2077      C2082   1.419       .  A
C2078      C2079   1.398       .  A
C2078      H2087   1.083       .  S
C2079      C2080   1.406       .  A
C2079      S2083   1.804       .  S
C2080      C2081   1.402       .  A
C2081      C2082   1.400       .  A
C2081      H2088   1.084       .  S
C2082      S2084   1.803       .  S
S2083      H2086   1.406       .  S
C2089      C2090   1.410       .  A
C2089      C2094   1.418       .  A
C2090      C2091   1.397       .  A
C2090      H2099   1.084       .  S
C2091      C2092   1.407       .  A
C2091      S2095   1.805       .  S
C2092      C2093   1.404       .  A
C2093      C2094   1.406       .  A
C2093      H2100   1.084       .  S
C2094      S2096   1.800       .  S
S2095      H2098   1.407       .  S
S2096      H2097   1.407       .  S
C2101      C2102   1.400       .  A
C2101      C2106   1.412       .  A
C2102      C2103   1.401       .  A
C2102      H2111   1.083       .  S
C2103      C2104   1.418       .  A
C2103      S2107   1.804       .  S
C2104      C2105   1.404       .  A
C2105      C2106   1.399       .  A
C2105      H2112   1.083       .  S
C2106      S2108   1.803       .  S
S2107      H2110   1.408       .  S
S2108      H4233   1.406       .  S
H2109      S4232   1.406       .  S
C2113      C2114   1.408       .  A
C2113      C2118   1.413       .  A
C2114      C4239   1.400       .  A
C2114      H2123   1.084       .  S
C2115      C4238   1.400       .  A
C2115      C2116   1.419       .  A
C2115      S2119   1.801       .  S
C2116      C2117   1.414       .  A
C2117      C4242   1.408   1_455  A
C2117      H2124   1.083       .  S
C2118      C4241   1.410       .  A
C2118      S2120   1.799       .  S
S2119      H2122   1.408       .  S
S2120      H2121   1.406       .  S
Zn2125     O2129   1.918       .  S
Zn2125     O2130   1.984   1_655  S
Zn2125     O2134   1.998       .  S
Zn2125     O2141   2.014       .  S
Zn2126     O2129   1.941       .  S
Zn2126     O2131   1.970       .  S
Zn2126     O2137   2.049       .  S
Zn2127     O2129   1.968       .  S
Zn2127     O2132   2.026       .  S
Zn2127     O2135   2.098       .  S
Zn2127     O2138   2.069       .  S
Zn2128     O2129   1.910       .  S
Zn2128     O2136   1.989       .  S
Zn2128     O2139   1.995       .  S
Zn2128     O2140   2.040       .  S
O2131      C2143   1.269       .  A
O2132      C2144   1.275       .  A
O2133      C2142   1.279       .  A
O2134      C2144   1.274       .  A
O2135      C2143   1.283       .  A
O2136      C2145   1.274       .  A
O2137      C2146   1.278       .  A
O2138      C2145   1.282       .  A
O2139      C2146   1.272       .  A
O2140      C2147   1.276       .  A
O2141      C2147   1.273       .  A
C2142      C3163   1.469       .  S
C2143      C3175   1.495       .  S
C2144      C4201   1.487   1_545  S
C2145      C3151   1.492       .  S
C2146      C3127   1.475       .  S
C2147      C3115   1.488       .  S
Zn2148     O2152   1.909       .  S
Zn2148     O2153   2.019       .  S
Zn2148     O2157   2.012       .  S
Zn2149     O2152   1.921       .  S
Zn2149     O2154   2.042       .  S
Zn2149     O2156   2.050       .  S
Zn2149     O2160   1.996       .  S
Zn2150     O2152   1.918       .  S
Zn2150     O2155   1.992       .  S
Zn2150     O2158   1.975       .  S
Zn2150     O2161   1.995       .  S
Zn2151     O2152   1.940       .  S
Zn2151     O2159   2.018       .  S
Zn2151     O2162   2.033       .  S
O2153      C2165   1.273       .  A
O2154      C2166   1.279       .  A
O2155      C2167   1.269       .  A
O2156      C2165   1.277       .  A
O2157      C2167   1.275       .  A
O2158      C2166   1.273       .  A
O2159      C2168   1.273       .  A
O2160      C2169   1.272       .  A
O2161      C2168   1.271       .  A
O2162      C2169   1.277       .  A
O2163      C2170   1.275       .  A
O2164      C2170   1.271   1_455  A
C2165      C3178   1.505       .  S
C2166      C3094   1.491       .  S
C2167      C3067   1.469       .  S
C2168      C3055   1.471       .  S
C2169      C3082   1.477       .  S
C2170      C3103   1.452       .  S
Zn2171     O2175   1.931       .  S
Zn2171     O2176   2.010       .  S
Zn2171     O2180   1.997       .  S
Zn2171     O2187   2.015       .  S
Zn2172     O2175   1.913       .  S
Zn2172     O2177   2.014       .  S
Zn2172     O2179   2.010       .  S
Zn2172     O3245   1.966       .  S
Zn2173     O2175   1.939       .  S
Zn2173     O2178   2.043       .  S
Zn2173     O2181   2.056       .  S
Zn2173     O2184   1.982       .  S
Zn2174     O2175   1.955       .  S
Zn2174     O2182   2.038       .  S
Zn2174     O3247   2.036       .  S
Zn2174     O2186   2.042       .  S
O2176      C2188   1.271       .  A
O2177      C2189   1.271       .  A
O2178      C2190   1.280       .  A
O2179      C2188   1.274       .  A
O2180      C2190   1.275       .  A
O2181      C2189   1.278       .  A
O2182      C2191   1.278       .  A
O2183     Zn3234   1.966   1_545  S
O2183      C2192   1.271       .  A
O2184      C2191   1.270       .  A
O2185     Zn3236   2.036   1_545  S
O2185      C2192   1.276       .  A
O2186      C2193   1.276       .  A
O2187      C2193   1.275       .  A
C2189      C3043   1.497       .  S
C2190      C3079   1.490       .  S
C2191      C3031   1.473       .  S
C2192      C3070   1.459       .  S
C2193      C3007   1.490       .  S
Zn2194     O2198   1.930       .  S
Zn2194     O2199   2.031       .  S
Zn2194     O2203   2.001       .  S
Zn2194     O2210   2.009       .  S
Zn2195     O2198   1.926       .  S
Zn2195     O2200   2.003       .  S
Zn2195     O2202   1.991       .  S
Zn2195     O2206   1.979       .  S
Zn2196     O2198   1.967       .  S
Zn2196     O2201   2.057       .  S
Zn2196     O2204   2.036       .  S
Zn2196     O2207   2.089       .  S
Zn2197     O2198   1.949       .  S
Zn2197     O2205   1.981       .  S
Zn2197     O3270   2.031   1_545  S
Zn2197     O2209   2.038       .  S
O2199      C2211   1.273       .  A
O2200      C2212   1.272       .  A
O2201      C2213   1.282       .  A
O2202      C2211   1.269       .  A
O2203      C2213   1.274       .  A
O2204      C2212   1.276       .  A
O2205      C2214   1.269       .  A
O2206      C3277   1.271   1_545  A
O2207      C2214   1.283       .  A
O2208     Zn3259   2.037       .  S
O2208      C2215   1.277       .  A
O2209      C2216   1.275       .  A
O2210      C2216   1.274       .  A
C2211      C2971   1.475       .  S
C2212      C3166   1.484       .  S
C2213      C2998   1.487       .  S
C2214      C3046   1.486       .  S
C2215      O3268   1.271       .  A
C2215      C2983   1.466       .  S
C2216      C3154   1.474       .  S
Zn2217     O2221   1.950       .  S
Zn2217     O2222   2.046       .  S
Zn2217     O2226   2.038       .  S
Zn2217     O2233   2.035       .  S
Zn2218     O2221   1.901       .  S
Zn2218     O2223   1.988       .  S
Zn2218     O2225   1.966       .  S
Zn2218     O2229   1.990       .  S
Zn2219     O2221   1.918       .  S
Zn2219     O2224   1.985       .  S
Zn2219     O2227   1.989       .  S
Zn2219     O2230   1.962       .  S
Zn2220     O2221   1.939       .  S
Zn2220     O2228   2.054       .  S
Zn2220     O2231   2.054       .  S
Zn2220     O2232   1.981       .  S
O2222      C2234   1.278       .  A
O2223      C2235   1.272       .  A
O2224      C2236   1.270       .  A
O2225      C2234   1.269       .  A
O2226      C2236   1.276       .  A
O2227      C2235   1.269       .  A
O2228      C2237   1.280       .  A
O2229      C2238   1.269       .  A
O2230      C2237   1.270       .  A
O2231      C2238   1.278       .  A
O2232      C2239   1.272       .  A
O2233      C2239   1.278       .  A
C2234      C3019   1.463       .  S
C2235      C4168   1.463       .  S
C2236      C2947   1.475       .  S
C2237      C3034   1.486       .  S
C2238      C2962   1.485       .  S
C2239      C3091   1.479       .  S
Zn2240     O2244   1.923       .  S
Zn2240     O2245   2.007       .  S
Zn2240     O2249   2.010       .  S
Zn2240     O2256   1.986       .  S
Zn2241     O2244   1.951       .  S
Zn2241     O2246   2.055       .  S
Zn2241     O2248   2.039       .  S
Zn2241     O2252   2.063       .  S
Zn2242     O2244   1.910       .  S
Zn2242     O2247   2.008       .  S
Zn2242     O2250   1.966       .  S
Zn2242     O2253   1.988       .  S
Zn2243     O2244   1.938       .  S
Zn2243     O2251   2.072       .  S
Zn2243     O2254   2.007       .  S
Zn2243     O2255   2.064       .  S
O2245      C2257   1.274       .  A
O2246      C2258   1.280       .  A
O2247      C2259   1.272       .  A
O2248      C2257   1.276       .  A
O2249      C2259   1.271       .  A
O2250      C2258   1.270       .  A
O2251      C2260   1.280       .  A
O2252      C2261   1.281       .  A
O2253      C2260   1.270       .  A
O2254      C2261   1.273       .  A
O2255      C2262   1.283       .  A
O2256      C2262   1.274       .  A
C2257      C2935   1.485       .  S
C2258      C3142   1.463       .  S
C2260      C2959   1.497       .  S
C2261      C2995   1.488       .  S
C2262      C3130   1.486       .  S
Zn2263     O2267   1.918       .  S
Zn2263     O2268   2.008       .  S
Zn2263     O2272   1.974       .  S
Zn2263     O2279   1.985       .  S
Zn2264     O2269   1.977       .  S
Zn2264     O2271   2.033       .  S
Zn2264     O2275   1.983       .  S
Zn2265     O2267   1.949       .  S
Zn2265     O2270   2.044       .  S
Zn2265     O2276   1.976       .  S
Zn2266     O2267   1.972       .  S
Zn2266     O2274   2.090       .  S
Zn2266     O2278   2.037       .  S
O2269      C2281   1.271       .  A
O2270      C2282   1.277       .  A
O2271      C2280   1.274   1_655  A
O2272      C2282   1.270       .  A
O2273      C2281   1.279       .  A
O2274      C2283   1.283       .  A
O2275      C2284   1.273       .  A
O2276      C2283   1.268       .  A
O2277      C2284   1.280       .  A
O2278      C2285   1.276       .  A
O2279      C2285   1.272       .  A
C2281      C2911   1.481       .  S
C2282      C2875   1.466       .  S
C2283      C2923   1.485       .  S
C2284      C2887   1.490       .  S
C2285      C2902   1.483       .  S
Zn2286     O2290   1.905       .  S
Zn2286     O2291   1.988       .  S
Zn2286     O2295   1.966       .  S
Zn2286     O2302   1.978       .  S
Zn2287     O2290   1.914       .  S
Zn2287     O2292   1.982       .  S
Zn2287     O2294   2.025       .  S
Zn2287     O2298   1.996       .  S
Zn2288     O2290   1.948       .  S
Zn2288     O2293   2.047       .  S
Zn2288     O2299   1.979       .  S
Zn2289     O2290   1.959       .  S
Zn2289     O2297   2.084       .  S
Zn2289     O2300   2.061       .  S
Zn2289     O2301   2.034       .  S
O2291      C2303   1.269       .  A
O2293      C2305   1.279       .  A
O2294      C2303   1.273       .  A
O2295      C2305   1.270       .  A
O2296      C2304   1.277       .  A
O2297      C2306   1.282       .  A
O2298      C2307   1.273       .  A
O2299      C2306   1.269       .  A
O2300      C2307   1.282       .  A
O2301      C2308   1.275       .  A
O2302      C2308   1.270       .  A
C2303      C3058   1.475       .  S
C2304      C2842   1.495       .  S
C2305      C2830   1.471       .  S
C2306      C2926   1.484       .  S
C2307      C2815   1.487       .  S
C2308      C2854   1.480       .  S
Zn2309     O2313   1.939       .  S
Zn2309     O2314   2.025       .  S
Zn2309     O2318   2.042       .  S
Zn2309     O2325   1.973       .  S
Zn2310     O2313   1.911       .  S
Zn2310     O2315   1.999       .  S
Zn2310     O2317   1.972       .  S
Zn2310     O2321   1.992       .  S
Zn2311     O2313   1.910       .  S
Zn2311     O2316   1.977       .  S
Zn2311     O2319   2.028       .  S
Zn2311     O2322   1.982       .  S
Zn2312     O2313   1.958       .  S
Zn2312     O2320   2.063       .  S
Zn2312     O2323   2.037       .  S
Zn2312     O2324   2.105       .  S
O2314      C2326   1.277       .  A
O2315      C2327   1.270       .  A
O2316      C2328   1.269       .  A
O2317      C2326   1.272       .  A
O2318      C2328   1.276       .  A
O2319      C2327   1.274       .  A
O2320      C2329   1.282       .  A
O2321      C2330   1.271       .  A
O2322      C2329   1.274       .  A
O2323      C2330   1.277       .  A
O2324      C2331   1.285       .  A
O2325      C2331   1.268       .  A
C2326      C2851   1.460       .  S
C2327      C2950   1.475       .  S
C2328      C2779   1.472       .  S
C2329      C3901   1.471       .  S
C2330      C2794   1.483       .  S
C2331      C2803   1.500       .  S
Zn2332     O2336   1.972       .  S
Zn2332     O2337   2.023       .  S
Zn2332     O2341   2.099       .  S
Zn2332     O2348   2.074       .  S
Zn2333     O2336   1.925       .  S
Zn2333     O2338   1.984       .  S
Zn2333     O2340   2.000       .  S
Zn2333     O2344   2.006       .  S
Zn2334     O2336   1.948       .  S
Zn2334     O2339   1.979       .  S
Zn2334     O2342   2.031       .  S
Zn2334     O2345   2.043       .  S
Zn2335     O2336   1.927       .  S
Zn2335     O2343   1.997       .  S
Zn2335     O2346   2.032       .  S
Zn2335     O2347   1.995       .  S
O2337      C2349   1.274       .  A
O2338      C2350   1.272       .  A
O2339      C2351   1.269       .  A
O2340      C2349   1.273       .  A
O2341      C2351   1.283       .  A
O2342      C2350   1.277       .  A
O2343      C2352   1.273       .  A
O2344      C2353   1.272       .  A
O2345      C2352   1.276       .  A
O2346      C2353   1.273       .  A
O2347      C2354   1.275       .  A
O2348      C2354   1.284       .  A
C2349      C2878   1.476       .  S
C2350      C2755   1.470       .  S
C2351      C2806   1.502       .  S
C2352      C2890   1.472       .  S
C2353      C2743   1.489       .  S
C2354      C2767   1.491       .  S
Zn2355     O2359   1.933   1_545  S
Zn2355     O2360   2.068       .  S
Zn2355     O2364   2.069       .  S
Zn2355     O2371   1.992       .  S
Zn2356     O2359   1.908       .  S
Zn2356     O3423   2.005       .  S
Zn2356     O2363   1.970   1_565  S
Zn2356     O2367   2.000   1_565  S
Zn2357     O3421   1.905       .  S
Zn2357     O2362   2.003       .  S
Zn2357     O2365   2.033       .  S
Zn2357     O2368   1.969       .  S
Zn2358     O2359   1.953       .  S
Zn2358     O3428   2.053       .  S
Zn2358     O2369   2.058       .  S
Zn2358     O2370   2.071   1_565  S
O2359     Zn3419   1.906       .  S
O2360      C2372   1.283       .  A
O2361     Zn3418   2.006       .  S
O2361      C2373   1.271       .  A
O2362      C2374   1.272       .  A
O2363      C2372   1.273       .  A
O2364      C3436   1.280   1_545  A
O2365      C2373   1.275       .  A
O2366     Zn3420   2.061       .  S
O2366      C2375   1.281       .  A
O2367      C2376   1.273       .  A
O2368      C2375   1.271       .  A
O2369      C2376   1.278   1_565  A
O2370      C2377   1.282       .  A
O2371      C2377   1.272       .  A
C2372      C2914   1.481       .  S
C2373      C2758   1.475       .  S
C2374      O3426   1.280       .  A
C2374      C2731   1.503       .  S
C2375      C2899   1.464       .  S
C2376      C2719   1.490   1_545  S
C2377      C2770   1.488       .  S
Zn2378     O2382   1.969       .  S
Zn2378     O2383   2.051       .  S
Zn2378     O3449   2.063       .  S
Zn2378     O2394   2.048       .  S
Zn2379     O2382   1.920       .  S
Zn2379     O2384   1.973       .  S
Zn2379     O2386   1.998       .  S
Zn2379     O2390   1.989       .  S
Zn2380     O2382   1.951       .  S
Zn2380     O3447   1.994       .  S
Zn2380     O2388   2.074       .  S
Zn2380     O2391   2.075       .  S
Zn2381     O2382   1.928       .  S
Zn2381     O2389   2.000       .  S
Zn2381     O2392   2.029       .  S
Zn2381     O2393   1.972       .  S
O2383      C2395   1.276       .  A
O2384      C2396   1.272       .  A
O2385     Zn3442   1.997       .  S
O2385      C2397   1.272   1_565  A
O2386      C2395   1.270       .  A
O2387     Zn3440   2.062   1_545  S
O2387      C2397   1.281       .  A
O2388      C2396   1.283       .  A
O2389      C2398   1.271       .  A
O2390      C2399   1.268       .  A
O2391      C2398   1.280       .  A
O2392      C2399   1.274       .  A
O2393      C2400   1.271       .  A
O2394      C2400   1.279       .  A
C2395      C3010   1.491       .  S
C2397      C2818   1.489       .  S
C2398      C2734   1.492       .  S
C2399      C2827   1.472       .  S
C2400      C2791   1.465       .  S
Zn2401     O2405   1.913       .  S
Zn2401     O2406   2.030       .  S
Zn2401     O2410   1.995       .  S
Zn2401     O2417   1.989       .  S
Zn2402     O2405   1.917       .  S
Zn2402     O2407   2.004       .  S
Zn2402     O2409   2.001       .  S
Zn2402     O2413   1.982       .  S
Zn2403     O2405   1.954       .  S
Zn2403     O2408   2.068       .  S
Zn2403     O2411   2.017       .  S
Zn2403     O2414   2.091       .  S
Zn2404     O2405   1.942       .  S
Zn2404     O2412   1.977       .  S
Zn2404     O2415   2.041       .  S
Zn2404     O2416   2.043       .  S
O2406      C2418   1.274       .  A
O2407      C2419   1.273       .  A
O2408      C2420   1.282       .  A
O2409      C2418   1.270       .  A
O2410      C2420   1.273       .  A
O2411      C2419   1.276       .  A
O2412      C2421   1.268       .  A
O2413      C2422   1.272       .  A
O2414      C2421   1.283       .  A
O2415      C2422   1.278       .  A
O2416      C2423   1.278       .  A
O2417      C2423   1.272       .  A
C2418      C2938   1.474       .  S
C2419      C2695   1.480       .  S
C2421      C2710   1.483       .  S
C2422      C2671   1.467       .  S
C2423      C2686   1.478       .  S
Zn2424     O2428   1.922       .  S
Zn2424     O2429   1.988       .  S
Zn2424     O2433   2.002       .  S
Zn2424     O2440   1.982       .  S
Zn2425     O2428   1.964       .  S
Zn2425     O2430   2.052       .  S
Zn2425     O2432   2.014       .  S
Zn2425     O2436   2.086       .  S
Zn2426     O2428   1.925       .  S
Zn2426     O2431   2.035       .  S
Zn2426     O2434   2.009       .  S
Zn2426     O2437   2.017       .  S
Zn2427     O2428   1.938       .  S
Zn2427     O2435   2.025       .  S
Zn2427     O2438   1.982       .  S
Zn2427     O2439   2.024       .  S
O2429      C2441   1.271       .  A
O2430      C2442   1.281       .  A
O2431      C2443   1.275       .  A
O2432      C2441   1.273       .  A
O2433      C2443   1.270       .  A
O2434      C2442   1.275       .  A
O2435      C2444   1.275       .  A
O2436      C2445   1.282       .  A
O2437      C2444   1.275       .  A
O2438      C2445   1.269       .  A
O2439      C2446   1.275       .  A
O2440      C2446   1.272       .  A
C2441      C2638   1.471       .  S
C2442      C2623   1.484       .  S
C2443      C2746   1.488       .  S
C2444      C2647   1.474       .  S
C2445      C2707   1.485       .  S
C2446      C2611   1.462       .  S
Zn2447     O2451   1.906       .  S
Zn2447     O2452   2.012       .  S
Zn2447     O2456   1.974       .  S
Zn2447     O2463   1.994       .  S
Zn2448     O2451   1.922       .  S
Zn2448     O2453   2.006       .  S
Zn2448     O2455   2.011       .  S
Zn2448     O2459   2.006       .  S
Zn2449     O2451   1.946       .  S
Zn2449     O2454   2.050       .  S
Zn2449     O2457   2.033       .  S
Zn2449     O3522   2.067   1_545  S
Zn2450     O2451   1.918       .  S
Zn2450     O2458   2.005       .  S
Zn2450     O2461   2.039       .  S
Zn2450     O2462   2.053       .  S
O2452      C2464   1.273       .  A
O2453      C2465   1.275       .  A
O2454      C2466   1.279       .  A
O2455      C2464   1.271       .  A
O2456      C2466   1.271       .  A
O2457      C2465   1.276       .  A
O2458      C3529   1.274   1_545  A
O2459      C2468   1.277       .  A
O2460     Zn3511   2.067       .  S
O2460      C2467   1.281       .  A
O2461      C2468   1.280       .  A
O2462      C2469   1.277       .  A
O2463      C2469   1.272       .  A
C2464      C2674   1.474       .  S
C2465      C2974   1.480       .  S
C2466      C2590   1.463       .  S
C2467      O3520   1.274       .  A
C2467      C2659   1.496       .  S
C2468      C2575   1.491       .  S
C2469      C2599   1.495       .  S
Zn2470     O2474   1.956       .  S
Zn2470     O3537   2.046       .  S
Zn2470     O3541   2.036   1_545  S
Zn2470     O2486   2.037       .  S
Zn2471     O2474   1.916       .  S
Zn2471     O3538   1.978   1_545  S
Zn2471     O3540   1.993       .  S
Zn2471     O2482   1.993       .  S
Zn2472     O3536   1.946       .  S
Zn2472     O2477   1.992       .  S
Zn2472     O2480   2.057       .  S
Zn2472     O2483   2.053       .  S
Zn2473     O2474   1.915       .  S
Zn2473     O2481   1.990       .  S
Zn2473     O2484   2.016       .  S
Zn2473     O2485   1.966       .  S
O2474     Zn3534   1.943   1_545  S
O2475     Zn3532   2.052       .  S
O2475      C2487   1.277       .  A
O2476     Zn3533   1.981       .  S
O2476      C2488   1.273       .  A
O2477      C2489   1.271       .  A
O2478     Zn3533   1.994       .  S
O2478      C2487   1.271       .  A
O2479     Zn3532   2.041       .  S
O2479      C2489   1.279       .  A
O2480      C2488   1.281       .  A
O2481      C2490   1.269       .  A
O2482      C2491   1.269       .  A
O2483      C3552   1.278       .  A
O2484      C2491   1.274       .  A
O2485      C2492   1.271       .  A
O2486      C2492   1.277       .  A
C2487      C3784   1.489       .  S
C2488      C2650   1.489       .  S
C2489      C2554   1.478       .  S
C2490      O3545   1.277   1_545  A
C2490      C2602   1.486       .  S
C2491      C2563   1.466       .  S
C2492      C2635   1.460       .  S
Zn2493     O2497   1.939       .  S
Zn2493     O2498   1.991       .  S
Zn2493     O2502   2.068       .  S
Zn2493     O2509   2.083       .  S
Zn2494     O2497   1.957       .  S
Zn2494     O2499   2.048       .  S
Zn2494     O2501   2.063       .  S
Zn2495     O2497   1.925       .  S
Zn2495     O2500   1.982       .  S
Zn2495     O2503   2.011       .  S
Zn2496     O2504   2.001       .  S
Zn2496     O2507   1.964       .  S
Zn2496     O2508   1.994       .  S
O2498      C2510   1.271       .  A
O2499      C2511   1.277       .  A
O2500      C2512   1.271       .  A
O2501      C2510   1.281       .  A
O2502      C2512   1.284       .  A
O2503      C2511   1.273       .  A
O2504      C2513   1.271       .  A
O2505      C2514   1.278       .  A
O2506      C2513   1.270       .  A
O2507      C2514   1.269       .  A
O2508      C2515   1.270       .  A
C2510      C2626   1.491       .  S
C2511      C2866   1.485       .  S
C2512      C2551   1.495       .  S
C2513      C2614   1.471       .  S
C2514      C2566   1.458       .  S
C2515      C2539   1.496       .  S
Zn2516     O2520   1.944       .  S
Zn2516     O2525   2.076       .  S
Zn2516     O2532   2.080       .  S
Zn2517     O2520   1.960       .  S
Zn2517     O2522   2.051       .  S
Zn2517     O2528   2.048       .  S
Zn2518     O2520   1.914       .  S
Zn2518     O2523   1.973       .  S
Zn2518     O2526   2.005       .  S
Zn2518     O2529   2.001       .  S
Zn2519     O2520   1.906       .  S
Zn2519     O2527   2.016       .  S
Zn2519     O2530   1.960       .  S
Zn2519     O2531   1.996       .  S
O2521      C2533   1.272       .  A
O2522      C2534   1.277       .  A
O2523      C2535   1.274       .  A
O2524      C2533   1.279       .  A
O2525      C2535   1.284       .  A
O2526      C2534   1.272       .  A
O2527      C2536   1.274       .  A
O2528      C2537   1.279       .  A
O2529      C2536   1.270       .  A
O2530      C2537   1.270       .  A
O2531      C2538   1.271       .  A
O2532      C2538   1.281       .  A
C2533      C2578   1.497       .  S
C2534      C3118   1.480       .  S
C2535      C3745   1.485   1_545  S
C2536      C2587   1.474       .  S
C2537      C2698   1.460       .  S
C2538      C2542   1.497       .  S
C2539      C2544   1.417       .  A
C2540      H2549   1.083       .  S
C2541      C2542   1.418       .  A
C2542      C2543   1.407       .  A
C2543      C2544   1.407       .  A
C2543      H2550   1.082       .  S
C2544      S2546   1.810       .  S
S2545      H2548   1.408       .  S
S2546      H2547   1.407       .  S
C2551      C2552   1.408       .  A
C2551      C2556   1.426       .  A
C2552      C2553   1.403       .  A
C2552      H2561   1.084       .  S
C2553      C2554   1.414       .  A
C2553      S2557   1.804       .  S
C2554      C2555   1.397       .  A
C2555      C2556   1.396       .  A
C2555      H2562   1.085       .  S
C2556      S2558   1.804       .  S
S2557      H2560   1.407       .  S
S2558      H2559   1.408       .  S
C2563      C2564   1.403       .  A
C2563      C2568   1.410       .  A
C2564      C2565   1.397       .  A
C2564      H2573   1.084       .  S
C2565      C2566   1.409       .  A
C2565      S2569   1.805       .  S
C2566      C2567   1.401       .  A
C2567      C2568   1.397       .  A
C2567      H2574   1.085       .  S
C2568      S2570   1.804       .  S
S2569      H2572   1.406       .  S
S2570      H2571   1.407       .  S
C2575      C2576   1.409       .  A
C2575      C2580   1.413       .  A
C2576      C2577   1.403       .  A
C2576      H2585   1.084       .  S
C2577      C2578   1.416       .  A
C2577      S2581   1.799       .  S
C2578      C2579   1.412       .  A
C2579      C2580   1.398       .  A
C2579      H2586   1.083       .  S
C2580      S2582   1.801       .  S
S2582      H2583   1.408       .  S
C2587      C2588   1.406       .  A
C2587      C2592   1.412       .  A
C2588      C2589   1.400       .  A
C2588      H2597   1.084       .  S
C2589      C2590   1.409       .  A
C2589      S2593   1.804       .  S
C2590      C2591   1.402       .  A
C2591      C2592   1.397       .  A
C2591      H2598   1.085       .  S
C2592      S2594   1.803       .  S
S2593      H2596   1.406       .  S
S2594      H2595   1.407       .  S
C2599      C2600   1.409       .  A
C2599      C2604   1.418       .  A
C2600      C2601   1.400       .  A
C2600      H2609   1.083       .  S
C2601      C2602   1.414       .  A
C2601      S2605   1.804       .  S
C2602      C2603   1.406       .  A
C2603      C2604   1.404       .  A
C2603      H3672   1.084   1_545  S
C2604      S3668   1.800   1_545  S
S2605      H2608   1.407       .  S
S2606      C3666   1.800       .  S
S2606      H3669   1.408       .  S
H2607      S3668   1.408   1_545  S
H2610      C3665   1.084       .  S
C2611      C2612   1.401       .  A
C2611      C2616   1.409       .  A
C2612      C2613   1.398       .  A
C2612      H2621   1.084       .  S
C2613      C2614   1.413       .  A
C2613      S2617   1.804       .  S
C2614      C2615   1.404       .  A
C2615      C2616   1.397       .  A
C2615      H2622   1.084       .  S
C2616      S2618   1.804       .  S
S2617      H2620   1.407       .  S
S2618      H2619   1.407       .  S
C2623      C2624   1.400       .  A
C2623      C2628   1.416       .  A
C2624      C2625   1.405       .  A
C2624      H2633   1.082       .  S
C2625      C2626   1.421       .  A
C2625      S2629   1.810       .  S
C2626      C2627   1.404       .  A
C2627      C2628   1.401       .  A
C2627      H2634   1.083       .  S
C2628      S2630   1.804       .  S
S2629      H2632   1.407       .  S
S2630      H2631   1.408       .  S
C2635      C2636   1.398       .  A
C2635      C2640   1.412       .  A
C2636      C2637   1.398       .  A
C2636      H2645   1.084       .  S
C2637      C2638   1.416       .  A
C2637      S2641   1.804       .  S
C2638      C2639   1.400       .  A
C2639      C2640   1.394       .  A
C2639      H2646   1.084       .  S
C2640      S2642   1.805       .  S
S2641      H2644   1.407       .  S
S2642      H2643   1.407       .  S
C2647      C2648   1.404       .  A
C2647      C2652   1.407       .  A
C2648      C2649   1.404       .  A
C2648      H2657   1.085       .  S
C2649      C2650   1.416       .  A
C2649      S2653   1.801       .  S
C2650      C2651   1.410       .  A
C2651      C2652   1.395       .  A
C2651      H2658   1.084       .  S
C2652      S2654   1.802       .  S
S2653      H2656   1.408       .  S
S2654      H2655   1.407       .  S
C2659      C2660   1.411       .  A
C2659      C2664   1.416       .  A
C2660      C2661   1.404       .  A
C2660      H2669   1.084       .  S
C2661      C2662   1.413       .  A
C2661      S2665   1.801       .  S
C2662      C2663   1.408       .  A
C2663      C2664   1.402       .  A
C2663      H2670   1.084       .  S
C2664      S2666   1.801       .  S
S2666      H2667   1.408       .  S
C2671      C2672   1.402       .  A
C2671      C2676   1.410       .  A
C2672      C2673   1.400       .  A
C2672      H2681   1.084       .  S
C2673      C2674   1.413       .  A
C2673      S2677   1.803       .  S
C2674      C2675   1.404       .  A
C2675      C2676   1.399       .  A
C2675      H2682   1.084       .  S
C2676      S2678   1.804       .  S
S2677      H2680   1.407       .  S
S2678      H2679   1.407       .  S
C2683      C3597   1.484       .  S
C2683      C2684   1.405       .  A
C2683      C2688   1.414       .  A
C2684      C2685   1.391       .  A
C2684      H2693   1.084       .  S
C2685      C2686   1.411       .  A
C2685      S2689   1.806       .  S
C2686      C2687   1.409       .  A
C2687      C2688   1.408       .  A
C2687      H2694   1.084       .  S
C2688      S2690   1.801       .  S
S2689      H2692   1.407       .  S
S2690      H3753   1.406       .  S
H2691      S3752   1.406       .  S
C2695      C2696   1.403       .  A
C2695      C2700   1.419       .  A
C2696      C2697   1.393       .  A
C2696      H2705   1.083       .  S
C2697      C2698   1.410       .  A
C2697      S2701   1.805       .  S
C2698      C2699   1.399       .  A
C2699      C2700   1.401       .  A
C2699      H2706   1.083       .  S
C2700      S2702   1.803       .  S
S2701      H2704   1.406       .  S
S2702      H2703   1.407       .  S
C2707      C2708   1.403       .  A
C2707      C2712   1.417       .  A
C2708      C2709   1.399       .  A
C2708      H2717   1.084       .  S
C2709      C2710   1.414       .  A
C2709      S2713   1.806       .  S
C2710      C2711   1.406       .  A
C2711      C2712   1.410       .  A
C2711      H2718   1.084       .  S
C2712      S2714   1.803       .  S
S2713      H2716   1.407       .  S
S2714      H2715   1.406       .  S
C2719      C3782   1.405       .  A
C2719      C2724   1.416   1_565  A
C2720      C3781   1.405       .  A
C2720      C2721   1.397   1_554  A
C2720      H2729   1.084       .  S
C2721      C3784   1.417       .  A
C2721      S2725   1.806       .  S
C2722      C3549   1.489       .  S
C2722      C3783   1.417       .  A
C2722      C2723   1.407   1_565  A
C2723      C2724   1.405   1_556  A
C2723      H2730   1.083       .  S
C2724      S2726   1.799       .  S
S2725      H2728   1.408       .  S
S2726      H2727   1.405       .  S
C2731      C2732   1.410       .  A
C2731      C2736   1.421       .  A
C2732      C2733   1.403       .  A
C2732      H2741   1.083       .  S
C2733      C2734   1.414       .  A
C2733      S2737   1.804       .  S
C2734      C2735   1.406       .  A
C2735      C2736   1.409       .  A
C2735      H2742   1.084       .  S
C2736      S3800   1.801       .  S
S2737      H2740   1.407       .  S
S2738      C3798   1.802   1_545  S
S2738      H2739   1.408       .  S
C2743      C2744   1.406       .  A
C2743      C2748   1.417       .  A
C2744      C2745   1.398   1_554  A
C2744      H2753   1.084       .  S
C2745      C2746   1.413       .  A
C2745      S2749   1.800       .  S
C2746      C2747   1.408       .  A
C2747      C2748   1.403   1_556  A
C2747      H2754   1.084       .  S
C2748      S2750   1.802       .  S
S2749      H2752   1.407       .  S
S2750      H2751   1.407       .  S
C2755      C2756   1.404       .  A
C2755      C2760   1.411       .  A
C2756      C2757   1.402       .  A
C2756      H2765   1.084       .  S
C2757      C2758   1.413       .  A
C2757      S2761   1.803       .  S
C2758      C2759   1.403       .  A
C2759      C2760   1.397       .  A
C2759      H2766   1.084       .  S
C2760      S2762   1.805       .  S
S2761      H2764   1.407       .  S
S2762      H2763   1.407       .  S
C2767      C2768   1.410       .  A
C2767      C2772   1.413       .  A
C2768      C2769   1.401       .  A
C2768      H2777   1.084       .  S
C2769      C2770   1.412       .  A
C2769      S2773   1.800       .  S
C2770      C2771   1.409       .  A
C2771      C2772   1.404       .  A
C2771      H2778   1.084       .  S
C2772      S2774   1.800       .  S
S2773      H2776   1.407       .  S
S2774      H2775   1.407       .  S
C2779      C2780   1.405       .  A
C2779      C2784   1.408       .  A
C2780      C2781   1.406       .  A
C2780      H2789   1.084       .  S
C2781      C2782   1.417       .  A
C2781      S2785   1.800       .  S
C2782      C2783   1.408       .  A
C2783      C2784   1.390       .  A
C2783      H2790   1.084       .  S
C2784      S2786   1.803       .  S
S2786      H2787   1.406       .  S
C2791      C2792   1.399       .  A
C2791      C2796   1.410       .  A
C2792      C2793   1.404       .  A
C2792      H2801   1.083       .  S
C2793      C2794   1.419       .  A
C2793      S2797   1.810       .  S
C2794      C2795   1.403       .  A
C2795      C2796   1.396       .  A
C2795      H2802   1.084       .  S
C2796      S2798   1.806       .  S
S2797      H2800   1.407       .  S
S2798      H2799   1.407       .  S
C2803      C2804   1.415       .  A
C2803      C2808   1.409       .  A
C2804      C2805   1.406       .  A
C2804      H2813   1.080       .  S
C2805      C2806   1.412       .  A
C2805      S2809   1.799       .  S
C2806      C2807   1.416       .  A
C2807      C2808   1.405       .  A
C2807      H2814   1.083       .  S
C2808      S2810   1.798       .  S
S2809      H2812   1.407       .  S
S2810      H2811   1.407       .  S
C2815      C2816   1.402       .  A
C2815      C2820   1.419       .  A
C2816      C2817   1.402       .  A
C2816      H2825   1.084       .  S
C2817      C2818   1.420       .  A
C2817      S2821   1.804       .  S
C2818      C2819   1.403       .  A
C2819      C2820   1.401       .  A
C2819      H2826   1.084       .  S
C2820      S2822   1.804       .  S
S2821      H2824   1.407       .  S
S2822      H2823   1.407       .  S
C2827      C2828   1.402       .  A
C2827      C2832   1.412       .  A
C2828      C2829   1.401       .  A
C2828      H2837   1.084       .  S
C2829      C2830   1.413       .  A
C2829      S2833   1.801       .  S
C2830      C2831   1.403       .  A
C2831      C2832   1.396       .  A
C2831      H2838   1.085       .  S
C2832      S2834   1.802       .  S
S2833      H2836   1.405       .  S
S2834      H2835   1.406       .  S
C2839      C3391   1.473   1_545  S
C2839      C2840   1.403       .  A
C2839      C2844   1.408       .  A
C2840      C2841   1.409       .  A
C2840      H2849   1.084       .  S
C2841      C2842   1.421       .  A
C2841      S2845   1.800       .  S
C2842      C2843   1.409       .  A
C2843      C2844   1.391       .  A
C2843      H2850   1.083       .  S
C2844      S3908   1.807   1_545  S
S2845      H2848   1.407       .  S
S2846      C3906   1.808       .  S
S2846      H2847   1.407       .  S
C2851      C2852   1.402       .  A
C2851      C2856   1.405       .  A
C2852      C2853   1.399       .  A
C2852      H2861   1.079       .  S
C2853      C2854   1.415       .  A
C2853      S2857   1.802       .  S
C2854      C2855   1.409       .  A
C2855      C2856   1.396       .  A
C2855      H2862   1.081       .  S
C2856      S2858   1.805       .  S
S2857      H2860   1.408       .  S
S2858      H2859   1.407       .  S
C2863      C2868   1.417       .  A
C2864      C2865   1.400   1_554  A
C2864      H2873   1.084       .  S
C2865      S2869   1.804       .  S
C2866      C2867   1.403       .  A
C2867      C2868   1.403   1_556  A
C2867      H2874   1.084       .  S
C2868      S2870   1.801       .  S
S2869      H2872   1.407       .  S
S2870      H2871   1.407       .  S
C2875      C2876   1.403       .  A
C2875      C2880   1.407       .  A
C2876      C2877   1.400       .  A
C2876      H2885   1.084       .  S
C2877      C2878   1.414       .  A
C2877      S2881   1.804       .  S
C2878      C2879   1.405       .  A
C2879      C2880   1.398       .  A
C2879      H2886   1.084       .  S
C2880      S2882   1.801       .  S
S2881      H2884   1.407       .  S
S2882      H2883   1.406       .  S
C2887      C2888   1.409       .  A
C2887      C2892   1.418       .  A
C2888      C2889   1.394       .  A
C2888      H2897   1.084       .  S
C2889      C2890   1.407       .  A
C2889      S2893   1.806       .  S
C2890      C2891   1.404       .  A
C2891      C2892   1.406       .  A
C2891      H2898   1.084       .  S
C2892      S2894   1.800       .  S
S2893      H2896   1.406       .  S
S2894      H2895   1.407       .  S
C2899      C2900   1.403       .  A
C2899      C2904   1.406       .  A
C2900      C2901   1.400       .  A
C2900      H2909   1.084       .  S
C2901      C2902   1.415       .  A
C2901      S2905   1.802       .  S
C2902      C2903   1.409       .  A
C2903      C2904   1.397       .  A
C2903      H2910   1.083       .  S
C2904      S2906   1.804       .  S
S2905      H2908   1.408       .  S
S2906      H2907   1.406       .  S
C2911      C2912   1.408       .  A
C2911      C2916   1.414       .  A
C2912      C2913   1.407       .  A
C2912      H2921   1.084       .  S
C2913      C2914   1.414       .  A
C2913      S2917   1.801       .  S
C2914      C2915   1.404       .  A
C2915      C2916   1.391       .  A
C2915      H2922   1.085       .  S
C2916      S2918   1.807       .  S
S2917      H2920   1.407       .  S
S2918      H2919   1.407       .  S
C2923      C2924   1.406       .  A
C2923      C2928   1.416       .  A
C2924      C2925   1.408       .  A
C2924      H2933   1.084       .  S
C2925      C2926   1.415       .  A
C2925      S2929   1.800       .  S
C2926      C2927   1.404       .  A
C2927      C2928   1.400       .  A
C2927      H2934   1.084       .  S
S2929      H2932   1.405       .  S
S2930      H2931   1.406       .  S
C2935      C2936   1.407       .  A
C2935      C2940   1.416       .  A
C2936      C2937   1.398       .  A
C2936      H2945   1.084       .  S
C2937      C2938   1.410       .  A
C2937      S2941   1.804       .  S
C2938      C2939   1.404       .  A
C2939      C2940   1.402       .  A
C2939      H2946   1.084       .  S
C2940      S2942   1.802       .  S
S2941      H2944   1.407       .  S
S2942      H2943   1.407       .  S
C2947      C2948   1.402       .  A
C2947      C2952   1.415       .  A
C2948      C2949   1.399       .  A
C2948      H2957   1.084       .  S
C2949      C2950   1.413       .  A
C2949      S2953   1.800       .  S
C2950      C2951   1.403       .  A
C2951      C2952   1.398       .  A
C2951      H2958   1.085       .  S
C2952      S2954   1.805       .  S
S2953      H2956   1.407       .  S
S2954      H2955   1.407       .  S
C2959      C2960   1.410       .  A
C2959      C2964   1.417       .  A
C2960      C2961   1.402       .  A
C2960      H2969   1.084       .  S
C2961      C2962   1.414       .  A
C2961      S2965   1.804       .  S
C2962      C2963   1.403       .  A
C2963      C2964   1.403       .  A
C2963      H2970   1.084       .  S
C2964      S2966   1.792       .  S
S2965      H2968   1.407       .  S
S2966      H2967   1.407       .  S
C2971      C2972   1.405       .  A
C2971      C2976   1.410       .  A
C2972      C2973   1.401       .  A
C2972      H2981   1.084       .  S
C2973      C2974   1.412       .  A
C2973      S2977   1.798   1_545  S
C2974      C2975   1.406       .  A
C2975      C2976   1.398       .  A
C2975      H2982   1.084       .  S
C2976      S2978   1.800       .  S
S2977      H2980   1.407       .  S
S2978      H2979   1.406       .  S
C2983      C2984   1.401       .  A
C2983      C2988   1.410       .  A
C2984      C2985   1.399       .  A
C2984      H2993   1.084       .  S
C2985      C2986   1.413       .  A
C2985      S2989   1.803       .  S
C2986      C2987   1.405       .  A
C2987      C2988   1.398       .  A
C2987      H2994   1.084       .  S
C2988      S2990   1.805       .  S
S2990      H2991   1.407       .  S
C2995      C2996   1.402       .  A
C2995      C3000   1.417       .  A
C2996      C2997   1.402       .  A
C2996      H3005   1.084       .  S
C2997      C2998   1.420       .  A
C2997      S3001   1.804       .  S
C2998      C2999   1.401       .  A
C2999      C3000   1.401       .  A
C2999      H3006   1.084       .  S
C3000      S3002   1.797       .  S
S3001      H3004   1.408       .  S
S3002      H3003   1.406       .  S
C3007      C3008   1.404       .  A
C3007      C3012   1.416       .  A
C3008      C3009   1.398       .  A
C3008      H3017   1.084       .  S
C3009      C3010   1.417       .  A
C3009      S3013   1.804       .  S
C3010      C3011   1.408       .  A
C3011      C3012   1.406       .  A
C3011      H3018   1.084       .  S
C3012      S3014   1.801       .  S
S3013      H3016   1.407       .  S
S3014      H3015   1.406       .  S
C3019      C3020   1.402       .  A
C3019      C3024   1.409       .  A
C3020      C3021   1.395       .  A
C3020      H3029   1.085       .  S
C3021      C3022   1.411       .  A
C3021      S3025   1.805       .  S
C3022      C3023   1.405       .  A
C3023      C3024   1.400       .  A
C3024      S3026   1.803       .  S
S3026      H3027   1.405       .  S
C3031      C3032   1.407       .  A
C3031      C3036   1.408       .  A
C3032      C3033   1.402       .  A
C3032      H3041   1.084       .  S
C3033      C3034   1.413       .  A
C3033      S3037   1.801       .  S
C3034      C3035   1.410       .  A
C3035      C3036   1.393       .  A
C3035      H3042   1.083       .  S
C3036      S3038   1.803       .  S
S3037      H3040   1.407       .  S
S3038      H3039   1.407       .  S
C3043      C3044   1.406       .  A
C3043      C3048   1.421       .  A
C3044      C4107   1.403       .  A
C3044      H3053   1.084       .  S
C3045      C4106   1.402   1_545  A
C3045      C3046   1.416       .  A
C3045      S3049   1.805       .  S
C3046      C3047   1.404       .  A
C3047      C4110   1.407   1_545  A
C3047      H3054   1.084       .  S
C3048      C4109   1.408       .  A
C3048      S3050   1.802       .  S
S3049      H3052   1.407       .  S
S3050      H3051   1.408       .  S
C3055      C3056   1.400       .  A
C3055      C3060   1.414       .  A
C3056      C3057   1.395       .  A
C3056      H3065   1.084       .  S
C3057      C3058   1.415       .  A
C3057      S3061   1.805       .  S
C3058      C3059   1.404       .  A
C3059      C3060   1.401       .  A
C3059      H3066   1.084       .  S
C3060      S3062   1.804       .  S
S3061      H3064   1.407       .  S
S3062      H3063   1.407       .  S
C3067      C3068   1.399       .  A
C3067      C3072   1.417       .  A
C3068      C3069   1.392       .  A
C3068      H3077   1.085       .  S
C3069      C3070   1.410       .  A
C3069      S3073   1.805       .  S
C3070      C3071   1.400       .  A
C3071      C3072   1.400       .  A
C3071      H3078   1.085       .  S
C3072      S3074   1.804       .  S
S3073      H4138   1.406       .  S
S3074      H3075   1.407       .  S
H3076      S4135   1.406       .  S
C3079      C3080   1.409       .  A
C3079      C3084   1.416       .  A
C3080      C3081   1.397       .  A
C3080      H3089   1.084       .  S
C3081      C3082   1.411       .  A
C3081      S3085   1.805       .  S
C3082      C3083   1.405       .  A
C3083      C3084   1.401       .  A
C3083      H3090   1.084       .  S
C3084      S3086   1.801       .  S
S3085      H3088   1.407       .  S
S3086      H3087   1.408       .  S
C3091      C3092   1.407       .  A
C3091      C3096   1.411       .  A
C3092      C3093   1.399       .  A
C3092      H3101   1.084       .  S
C3093      C3094   1.416       .  A
C3093      S3097   1.801       .  S
C3094      C3095   1.412       .  A
C3095      C3096   1.395       .  A
C3095      H3102   1.083       .  S
C3096      S3098   1.804       .  S
S3097      H3100   1.408       .  S
S3098      H3099   1.408       .  S
C3103      C3104   1.400       .  A
C3103      C3108   1.408       .  A
C3104      C3105   1.396       .  A
C3104      H3113   1.084       .  S
C3105      C3106   1.413       .  A
C3105      S3109   1.804       .  S
C3106      C3297   1.462   1_545  S
C3106      C3107   1.400       .  A
C3107      C3108   1.391       .  A
C3107      H3114   1.085       .  S
C3108      S3110   1.805       .  S
S3109      H4174   1.407   1_545  S
S3110      H3111   1.406       .  S
H3112      S4171   1.407       .  S
C3115      C3116   1.409       .  A
C3115      C3120   1.416       .  A
C3116      C3117   1.404       .  A
C3116      H3125   1.084       .  S
C3117      C3118   1.412       .  A
C3117      S3121   1.803   1_655  S
C3118      C3119   1.404       .  A
C3119      C3120   1.401       .  A
C3119      H3126   1.084       .  S
C3120      S3122   1.803       .  S
S3121      H3124   1.406   1_455  S
S3122      H3123   1.407       .  S
C3127      C3128   1.406       .  A
C3127      C3132   1.408       .  A
C3128      C3129   1.401       .  A
C3128      H3137   1.084       .  S
C3129      C3130   1.412       .  A
C3129      S3133   1.800       .  S
C3130      C3131   1.411       .  A
C3131      C3132   1.401       .  A
C3131      H3138   1.084       .  S
C3132      S3134   1.803   1_655  S
S3133      H3136   1.407       .  S
S3134      H3135   1.406   1_455  S
C3139      C3206   1.488       .  S
C3139      C3140   1.410       .  A
C3139      C3144   1.419       .  A
C3140      C3141   1.397       .  A
C3140      H3149   1.083       .  S
C3141      C3142   1.406       .  A
C3141      S3145   1.804       .  S
C3142      C3143   1.402       .  A
C3143      C3144   1.399       .  A
C3143      H3150   1.084       .  S
C3144      S3146   1.803       .  S
S3145      H3148   1.406       .  S
S3146      H4209   1.408       .  S
H3147      S4208   1.408   1_545  S
C3151      C3152   1.410       .  A
C3151      C3156   1.418       .  A
C3152      C3153   1.397       .  A
C3152      H3161   1.084       .  S
C3153      C3154   1.407       .  A
C3153      S3157   1.805       .  S
C3154      C3155   1.404       .  A
C3155      C3156   1.406       .  A
C3155      H3162   1.084       .  S
C3156      S3158   1.800       .  S
S3157      H3160   1.407       .  S
S3158      H3159   1.407       .  S
C3163      C3164   1.400       .  A
C3163      C3168   1.412       .  A
C3164      C3165   1.401       .  A
C3164      H3173   1.083       .  S
C3165      C3166   1.418       .  A
C3165      S3169   1.804       .  S
C3166      C3167   1.404       .  A
C3167      C3168   1.399       .  A
C3167      H3174   1.083       .  S
C3168      S3170   1.804       .  S
S3169      H3172   1.408       .  S
C3175      C3176   1.407   1_655  A
C3175      C3180   1.413       .  A
C3176      H3185   1.084       .  S
C3177      C3178   1.419       .  A
C3177      S3181   1.801       .  S
C3178      C3179   1.415       .  A
C3179      H3186   1.083       .  S
C3180      S3182   1.799       .  S
S3181      H3184   1.408       .  S
S3182      H3183   1.406       .  S
Zn3187     O3191   1.918       .  S
Zn3187     O3192   1.983   1_655  S
Zn3187     O3196   2.000       .  S
Zn3187     O3203   2.014       .  S
Zn3188     O3191   1.942       .  S
Zn3188     O3193   1.973       .  S
Zn3188     O3199   2.052       .  S
Zn3189     O3191   1.966       .  S
Zn3189     O3194   2.025       .  S
Zn3189     O3197   2.093       .  S
Zn3189     O3200   2.068       .  S
Zn3190     O3191   1.909       .  S
Zn3190     O3198   1.987       .  S
Zn3190     O3201   1.994       .  S
Zn3190     O3202   2.039       .  S
O3193      C3205   1.269       .  A
O3194      C3206   1.274       .  A
O3195      C3204   1.278       .  A
O3196      C3206   1.274       .  A
O3197      C3205   1.283       .  A
O3198      C3207   1.274       .  A
O3199      C3208   1.279       .  A
O3200      C3207   1.282       .  A
O3201      C3208   1.271       .  A
O3202      C3209   1.276       .  A
O3203      C3209   1.273       .  A
C3204      C4225   1.469       .  S
C3205      C4237   1.492       .  S
C3207      C4213   1.492       .  S
C3208      C4189   1.476       .  S
C3209      C4177   1.488       .  S
Zn3210     O3214   1.910       .  S
Zn3210     O3215   2.022       .  S
Zn3210     O3219   2.012       .  S
Zn3211     O3214   1.923       .  S
Zn3211     O3216   2.046       .  S
Zn3211     O3218   2.048       .  S
Zn3211     O3222   1.997       .  S
Zn3212     O3214   1.916       .  S
Zn3212     O3217   1.988       .  S
Zn3212     O3220   1.969       .  S
Zn3212     O3223   1.994       .  S
Zn3213     O3214   1.938       .  S
Zn3213     O3221   2.021       .  S
Zn3213     O3224   2.029       .  S
O3215      C3227   1.273       .  A
O3216      C3228   1.280       .  A
O3217      C3229   1.268       .  A
O3218      C3227   1.277       .  A
O3219      C3229   1.275       .  A
O3220      C3228   1.273       .  A
O3221      C3230   1.273       .  A
O3222      C3231   1.272       .  A
O3223      C3230   1.271       .  A
O3224      C3231   1.277       .  A
O3225      C3232   1.275       .  A
O3226      C3232   1.271   1_455  A
C3227      C4240   1.506       .  S
C3228      C4156   1.491       .  S
C3229      C4129   1.467       .  S
C3230      C4117   1.473       .  S
C3231      C4144   1.475       .  S
C3232      C4165   1.452       .  S
Zn3233     O3237   1.931       .  S
Zn3233     O3238   2.009       .  S
Zn3233     O3242   1.996       .  S
Zn3233     O3249   2.018       .  S
Zn3234     O3237   1.914       .  S
Zn3234     O3239   2.009       .  S
Zn3234     O3241   2.010       .  S
Zn3235     O3237   1.940       .  S
Zn3235     O3240   2.040       .  S
Zn3235     O3243   2.052       .  S
Zn3235     O3246   1.985       .  S
Zn3236     O3237   1.955       .  S
Zn3236     O3244   2.038       .  S
Zn3236     O3248   2.040       .  S
O3238      C3250   1.271       .  A
O3239      C3251   1.270       .  A
O3240      C3252   1.279       .  A
O3241      C3250   1.274       .  A
O3242      C3252   1.275       .  A
O3243      C3251   1.278       .  A
O3244      C3253   1.278       .  A
O3245      C3254   1.271       .  A
O3246      C3253   1.271       .  A
O3247      C3254   1.276       .  A
O3248      C3255   1.276       .  A
O3249      C3255   1.275       .  A
C3251      C4105   1.495       .  S
C3252      C4141   1.488       .  S
C3253      C4093   1.474       .  S
C3254      C4132   1.458       .  S
C3255      C4069   1.490       .  S
Zn3256     O3260   1.931       .  S
Zn3256     O3261   2.032       .  S
Zn3256     O3265   2.001       .  S
Zn3256     O3272   2.007       .  S
Zn3257     O3260   1.925       .  S
Zn3257     O3262   2.000       .  S
Zn3257     O3264   1.990       .  S
Zn3257     O3268   1.977       .  S
Zn3258     O3260   1.969       .  S
Zn3258     O3263   2.058       .  S
Zn3258     O3266   2.040       .  S
Zn3258     O3269   2.092       .  S
Zn3259     O3260   1.950       .  S
Zn3259     O3267   1.985       .  S
Zn3259     O3271   2.041       .  S
O3261      C3273   1.273       .  A
O3262      C3274   1.272       .  A
O3263      C3275   1.282       .  A
O3264      C3273   1.269       .  A
O3265      C3275   1.274       .  A
O3266      C3274   1.276       .  A
O3267      C3276   1.270       .  A
O3269      C3276   1.283       .  A
O3270      C3277   1.276       .  A
O3271      C3278   1.276       .  A
O3272      C3278   1.274       .  A
C3273      C4033   1.476       .  S
C3274      C4228   1.484       .  S
C3275      C4060   1.488       .  S
C3276      C4108   1.488       .  S
C3277      C4045   1.464       .  S
C3278      C4216   1.474       .  S
Zn3279     O3283   1.951       .  S
Zn3279     O3284   2.048       .  S
Zn3279     O3288   2.038       .  S
Zn3279     O3295   2.036       .  S
Zn3280     O3283   1.904       .  S
Zn3280     O3285   1.987       .  S
Zn3280     O3287   1.967       .  S
Zn3280     O3291   1.994       .  S
Zn3281     O3283   1.923       .  S
Zn3281     O3286   1.991       .  S
Zn3281     O3289   1.992       .  S
Zn3281     O3292   1.970       .  S
Zn3282     O3283   1.940       .  S
Zn3282     O3290   2.049       .  S
Zn3282     O3293   2.052       .  S
Zn3282     O3294   1.979       .  S
O3284      C3296   1.278       .  A
O3285      C3297   1.272       .  A
O3286      C3298   1.270       .  A
O3287      C3296   1.269       .  A
O3288      C3298   1.276       .  A
O3289      C3297   1.269       .  A
O3290      C3299   1.279       .  A
O3291      C3300   1.269       .  A
O3292      C3299   1.271       .  A
O3293      C3300   1.278       .  A
O3294      C3301   1.271       .  A
O3295      C3301   1.278       .  A
C3296      C4081   1.464       .  S
C3298      C4009   1.476       .  S
C3299      C4096   1.486       .  S
C3300      C4024   1.486       .  S
C3301      C4153   1.479       .  S
Zn3302     O3306   1.920       .  S
Zn3302     O3307   2.005       .  S
Zn3302     O3311   2.010       .  S
Zn3302     O3318   1.984       .  S
Zn3303     O3306   1.950       .  S
Zn3303     O3308   2.053       .  S
Zn3303     O3310   2.037       .  S
Zn3303     O3314   2.061       .  S
Zn3304     O3306   1.908       .  S
Zn3304     O3309   2.010       .  S
Zn3304     O3312   1.968       .  S
Zn3304     O3315   1.991       .  S
Zn3305     O3306   1.937       .  S
Zn3305     O3313   2.076       .  S
Zn3305     O3316   2.007       .  S
Zn3305     O3317   2.068       .  S
O3307      C3319   1.274       .  A
O3308      C3320   1.279       .  A
O3309      C3321   1.272       .  A
O3310      C3319   1.276       .  A
O3311      C3321   1.271       .  A
O3312      C3320   1.270       .  A
O3313      C3322   1.280       .  A
O3314      C3323   1.281       .  A
O3315      C3322   1.271       .  A
O3316      C3323   1.273       .  A
O3317      C3324   1.283       .  A
O3318      C3324   1.274       .  A
C3319      C3997   1.484       .  S
C3320      C4204   1.462       .  S
C3322      C4021   1.498       .  S
C3323      C4057   1.488       .  S
C3324      C4192   1.487       .  S
Zn3325     O3329   1.917       .  S
Zn3325     O3330   2.011       .  S
Zn3325     O3334   1.972       .  S
Zn3325     O3341   1.981       .  S
Zn3326     O3331   1.979       .  S
Zn3326     O3333   2.032       .  S
Zn3326     O3337   1.985       .  S
Zn3327     O3329   1.955       .  S
Zn3327     O3332   2.055       .  S
Zn3327     O3338   1.985       .  S
Zn3328     O3329   1.968       .  S
Zn3328     O3336   2.079       .  S
Zn3328     O3340   2.032       .  S
O3331      C3343   1.271       .  A
O3332      C3344   1.279       .  A
O3333      C3342   1.274   1_655  A
O3334      C3344   1.270       .  A
O3335      C3343   1.278       .  A
O3336      C3345   1.281       .  A
O3337      C3346   1.274       .  A
O3338      C3345   1.269       .  A
O3339      C3346   1.281       .  A
O3340      C3347   1.274       .  A
O3341      C3347   1.272       .  A
C3343      C3973   1.475       .  S
C3344      C3937   1.469       .  S
C3345      C3985   1.478       .  S
C3346      C3949   1.498       .  S
C3347      C3964   1.486       .  S
Zn3348     O3352   1.905       .  S
Zn3348     O3353   1.987       .  S
Zn3348     O3357   1.971       .  S
Zn3348     O3364   1.976       .  S
Zn3349     O3352   1.914       .  S
Zn3349     O3354   1.987       .  S
Zn3349     O3356   2.032       .  S
Zn3349     O3360   2.002       .  S
Zn3350     O3352   1.944       .  S
Zn3350     O3355   2.041       .  S
Zn3350     O3361   1.978       .  S
Zn3351     O3352   1.960       .  S
Zn3351     O3359   2.085       .  S
Zn3351     O3362   2.057       .  S
Zn3351     O3363   2.032       .  S
O3353      C3365   1.269       .  A
O3355      C3367   1.278       .  A
O3356      C3365   1.274       .  A
O3357      C3367   1.270       .  A
O3358      C3366   1.278       .  A
O3359      C3368   1.282       .  A
O3360      C3369   1.274       .  A
O3361      C3368   1.269       .  A
O3362      C3369   1.282       .  A
O3363      C3370   1.275       .  A
O3364      C3370   1.270       .  A
C3365      C4120   1.477       .  S
C3366      C3904   1.491       .  S
C3367      C3892   1.467       .  S
C3368      C3988   1.494       .  S
C3369      C3877   1.487       .  S
C3370      C3916   1.477       .  S
Zn3371     O3375   1.941       .  S
Zn3371     O3376   2.021       .  S
Zn3371     O3380   2.044       .  S
Zn3371     O3387   1.979       .  S
Zn3372     O3375   1.913       .  S
Zn3372     O3377   2.004       .  S
Zn3372     O3379   1.977       .  S
Zn3372     O3383   1.996       .  S
Zn3373     O3375   1.906       .  S
Zn3373     O3378   1.981       .  S
Zn3373     O3381   2.023       .  S
Zn3373     O3384   1.981       .  S
Zn3374     O3375   1.956       .  S
Zn3374     O3382   2.064       .  S
Zn3374     O3385   2.033       .  S
Zn3374     O3386   2.100       .  S
O3376      C3388   1.276       .  A
O3377      C3389   1.270       .  A
O3378      C3390   1.270       .  A
O3379      C3388   1.273       .  A
O3380      C3390   1.276       .  A
O3381      C3389   1.273       .  A
O3382      C3391   1.282       .  A
O3383      C3392   1.272       .  A
O3384      C3391   1.273       .  A
O3385      C3392   1.277       .  A
O3386      C3393   1.285       .  A
O3387      C3393   1.268       .  A
C3388      C3913   1.459       .  S
C3389      C4012   1.475       .  S
C3390      C3841   1.476       .  S
C3392      C3856   1.482       .  S
C3393      C3865   1.486       .  S
Zn3394     O3398   1.976       .  S
Zn3394     O3399   2.035       .  S
Zn3394     O3403   2.111       .  S
Zn3394     O3410   2.086       .  S
Zn3395     O3398   1.925       .  S
Zn3395     O3400   1.982       .  S
Zn3395     O3402   2.000       .  S
Zn3395     O3406   2.010       .  S
Zn3396     O3398   1.949       .  S
Zn3396     O3401   1.975       .  S
Zn3396     O3404   2.039       .  S
Zn3396     O3407   2.055       .  S
Zn3397     O3398   1.923       .  S
Zn3397     O3405   1.997       .  S
Zn3397     O3408   2.033       .  S
Zn3397     O3409   1.996       .  S
O3399      C3411   1.275       .  A
O3400      C3412   1.272       .  A
O3401      C3413   1.269       .  A
O3402      C3411   1.273       .  A
O3403      C3413   1.285       .  A
O3404      C3412   1.278       .  A
O3405      C3414   1.273       .  A
O3406      C3415   1.272       .  A
O3407      C3414   1.278       .  A
O3408      C3415   1.273       .  A
O3409      C3416   1.275       .  A
O3410      C3416   1.285       .  A
C3411      C3940   1.481       .  S
C3412      C3817   1.471       .  S
C3413      C3868   1.509       .  S
C3414      C3952   1.478       .  S
C3415      C3805   1.490       .  S
C3416      C3829   1.493       .  S
Zn3417     O3421   1.936       .  S
Zn3417     O3422   2.067       .  S
Zn3417     O3426   2.073       .  S
Zn3417     O3433   1.993       .  S
Zn3418     O3421   1.909       .  S
Zn3418     O3425   1.969       .  S
Zn3418     O3429   2.002       .  S
Zn3419     O3424   2.007       .  S
Zn3419     O3427   2.034       .  S
Zn3419     O3430   1.970       .  S
Zn3420     O3421   1.953       .  S
Zn3420     O3431   2.064       .  S
Zn3420     O3432   2.080       .  S
O3422      C3434   1.283       .  A
O3423      C3435   1.270       .  A
O3424      C3436   1.272       .  A
O3425      C3434   1.273       .  A
O3427      C3435   1.275       .  A
O3428      C3437   1.280       .  A
O3429      C3438   1.274       .  A
O3430      C3437   1.272       .  A
O3431      C3438   1.279       .  A
O3432      C3439   1.283       .  A
O3433      C3439   1.273       .  A
C3434      C3976   1.483       .  S
C3435      C3820   1.475       .  S
C3436      C3793   1.501       .  S
C3437      C3961   1.461       .  S
C3438      C3781   1.492       .  S
C3439      C3832   1.492       .  S
Zn3440     O3444   1.970       .  S
Zn3440     O3445   2.052       .  S
Zn3440     O3456   2.047       .  S
Zn3441     O3444   1.922       .  S
Zn3441     O3446   1.968       .  S
Zn3441     O3448   1.997       .  S
Zn3441     O3452   1.988       .  S
Zn3442     O3444   1.953       .  S
Zn3442     O3450   2.069       .  S
Zn3442     O3453   2.073       .  S
Zn3443     O3444   1.928       .  S
Zn3443     O3451   2.002       .  S
Zn3443     O3454   2.027       .  S
Zn3443     O3455   1.969       .  S
O3445      C3457   1.276       .  A
O3446      C3458   1.272       .  A
O3447      C3459   1.272       .  A
O3448      C3457   1.270       .  A
O3449      C3459   1.281       .  A
O3450      C3458   1.282       .  A
O3451      C3460   1.271       .  A
O3452      C3461   1.267       .  A
O3453      C3460   1.280       .  A
O3454      C3461   1.274       .  A
O3455      C3462   1.271       .  A
O3456      C3462   1.278       .  A
C3457      C4072   1.490       .  S
C3459      C3880   1.488       .  S
C3460      C3796   1.492       .  S
C3461      C3889   1.474       .  S
C3462      C3853   1.463       .  S
Zn3463     O3467   1.914       .  S
Zn3463     O3468   2.028       .  S
Zn3463     O3472   1.995       .  S
Zn3463     O3479   1.988       .  S
Zn3464     O3467   1.918       .  S
Zn3464     O3469   2.005       .  S
Zn3464     O3471   1.999       .  S
Zn3464     O3475   1.984       .  S
Zn3465     O3467   1.954       .  S
Zn3465     O3470   2.070       .  S
Zn3465     O3473   2.017       .  S
Zn3465     O3476   2.085       .  S
Zn3466     O3467   1.944       .  S
Zn3466     O3474   1.978       .  S
Zn3466     O3477   2.047       .  S
Zn3466     O3478   2.046       .  S
O3468      C3480   1.274       .  A
O3469      C3481   1.274       .  A
O3470      C3482   1.282       .  A
O3471      C3480   1.270       .  A
O3472      C3482   1.273       .  A
O3473      C3481   1.276       .  A
O3474      C3483   1.268       .  A
O3475      C3484   1.272       .  A
O3476      C3483   1.282       .  A
O3477      C3484   1.279       .  A
O3478      C3485   1.278       .  A
O3479      C3485   1.272       .  A
C3480      C4000   1.473       .  S
C3481      C3757   1.479       .  S
C3483      C3772   1.480       .  S
C3484      C3733   1.469       .  S
C3485      C3748   1.479       .  S
Zn3486     O3490   1.922       .  S
Zn3486     O3491   1.989       .  S
Zn3486     O3495   2.003       .  S
Zn3486     O3502   1.984       .  S
Zn3487     O3490   1.965       .  S
Zn3487     O3492   2.052       .  S
Zn3487     O3494   2.014       .  S
Zn3487     O3498   2.082       .  S
Zn3488     O3490   1.925       .  S
Zn3488     O3493   2.035       .  S
Zn3488     O3496   2.009       .  S
Zn3488     O3499   2.010       .  S
Zn3489     O3490   1.939       .  S
Zn3489     O3497   2.025       .  S
Zn3489     O3500   1.982       .  S
Zn3489     O3501   2.029       .  S
O3491      C3503   1.271       .  A
O3492      C3504   1.281       .  A
O3493      C3505   1.275       .  A
O3494      C3503   1.274       .  A
O3495      C3505   1.271       .  A
O3496      C3504   1.275       .  A
O3497      C3506   1.275       .  A
O3498      C3507   1.281       .  A
O3499      C3506   1.275       .  A
O3500      C3507   1.269       .  A
O3501      C3508   1.276       .  A
O3502      C3508   1.272       .  A
C3503      C3700   1.472       .  S
C3504      C3685   1.483       .  S
C3505      C3808   1.489       .  S
C3506      C3709   1.472       .  S
C3507      C3769   1.485       .  S
C3508      C3673   1.464       .  S
Zn3509     O3513   1.906       .  S
Zn3509     O3514   2.015       .  S
Zn3509     O3518   1.975       .  S
Zn3509     O3525   1.999       .  S
Zn3510     O3513   1.921       .  S
Zn3510     O3515   2.006       .  S
Zn3510     O3517   2.014       .  S
Zn3510     O3521   2.004       .  S
Zn3511     O3513   1.943       .  S
Zn3511     O3516   2.049       .  S
Zn3511     O3519   2.034       .  S
Zn3512     O3513   1.917       .  S
Zn3512     O3520   2.009       .  S
Zn3512     O3523   2.040       .  S
Zn3512     O3524   2.054       .  S
O3514      C3526   1.273       .  A
O3515      C3527   1.275       .  A
O3516      C3528   1.279       .  A
O3517      C3526   1.271       .  A
O3518      C3528   1.271       .  A
O3519      C3527   1.276       .  A
O3521      C3530   1.277       .  A
O3522      C3529   1.281       .  A
O3523      C3530   1.280       .  A
O3524      C3531   1.278       .  A
O3525      C3531   1.272       .  A
C3526      C3736   1.476       .  S
C3527      C4036   1.480       .  S
C3528      C3652   1.462       .  S
C3529      C3721   1.496       .  S
C3530      C3637   1.491       .  S
C3531      C3661   1.496       .  S
Zn3532     O3536   1.958       .  S
Zn3532     O3548   2.038       .  S
Zn3533     O3536   1.919       .  S
Zn3533     O3544   1.991       .  S
Zn3534     O3539   1.987       .  S
Zn3534     O3542   2.053       .  S
Zn3534     O3545   2.048       .  S
Zn3535     O3536   1.919       .  S
Zn3535     O3543   1.993       .  S
Zn3535     O3546   2.019       .  S
Zn3535     O3547   1.969       .  S
O3537      C3549   1.276   1_545  A
O3538      C3550   1.273       .  A
O3539      C3551   1.271       .  A
O3540      C3549   1.271   1_545  A
O3541      C3551   1.278       .  A
O3542      C3550   1.280       .  A
O3543      C3552   1.269       .  A
O3544      C3553   1.268       .  A
O3546      C3553   1.274       .  A
O3547      C3554   1.272       .  A
O3548      C3554   1.277       .  A
C3550      C3712   1.487       .  S
C3551      C3616   1.475       .  S
C3552      C3664   1.488       .  S
C3553      C3625   1.466       .  S
C3554      C3697   1.460       .  S
Zn3555     O3559   1.932       .  S
Zn3555     O3560   1.989       .  S
Zn3555     O3564   2.062       .  S
Zn3555     O3571   2.082       .  S
Zn3556     O3559   1.953       .  S
Zn3556     O3561   2.049       .  S
Zn3556     O3563   2.067       .  S
Zn3557     O3559   1.920       .  S
Zn3557     O3562   1.978       .  S
Zn3557     O3565   2.009       .  S
Zn3558     O3566   2.002       .  S
Zn3558     O3569   1.964       .  S
Zn3558     O3570   1.994       .  S
O3560      C3572   1.271       .  A
O3561      C3573   1.278       .  A
O3562      C3574   1.271       .  A
O3563      C3572   1.282       .  A
O3564      C3574   1.284       .  A
O3565      C3573   1.273       .  A
O3566      C3575   1.272       .  A
O3567      C3576   1.278       .  A
O3568      C3575   1.270       .  A
O3569      C3576   1.269       .  A
O3570      C3577   1.270       .  A
C3572      C3688   1.492       .  S
C3573      C3928   1.484       .  S
C3574      C3613   1.493       .  S
C3575      C3676   1.472       .  S
C3576      C3628   1.458       .  S
C3577      C3601   1.497       .  S
Zn3578     O3582   1.942       .  S
Zn3578     O3587   2.073       .  S
Zn3578     O3594   2.078       .  S
Zn3579     O3582   1.960       .  S
Zn3579     O3584   2.052       .  S
Zn3579     O3590   2.051       .  S
Zn3580     O3582   1.913       .  S
Zn3580     O3585   1.973       .  S
Zn3580     O3588   2.005       .  S
Zn3580     O3591   2.000       .  S
Zn3581     O3582   1.908       .  S
Zn3581     O3589   2.018       .  S
Zn3581     O3592   1.960       .  S
Zn3581     O3593   1.995       .  S
O3583      C3595   1.272       .  A
O3584      C3596   1.277       .  A
O3585      C3597   1.274       .  A
O3586      C3595   1.279       .  A
O3587      C3597   1.284       .  A
O3588      C3596   1.272       .  A
O3589      C3598   1.274       .  A
O3590      C3599   1.280       .  A
O3591      C3598   1.270       .  A
O3592      C3599   1.270       .  A
O3593      C3600   1.270       .  A
O3594      C3600   1.281       .  A
C3595      C3640   1.495       .  S
C3596      C4180   1.480       .  S
C3598      C3649   1.474       .  S
C3599      C3760   1.461       .  S
C3600      C3604   1.496       .  S
C3601      C3606   1.418       .  A
C3602      H3611   1.083       .  S
C3603      C3604   1.418       .  A
C3604      C3605   1.407       .  A
C3605      C3606   1.407       .  A
C3605      H3612   1.082       .  S
C3606      S3608   1.810       .  S
S3607      H3610   1.408       .  S
S3608      H3609   1.407       .  S
C3613      C3614   1.407       .  A
C3613      C3618   1.426       .  A
C3614      C3615   1.401       .  A
C3614      H3623   1.084       .  S
C3615      C3616   1.413       .  A
C3615      S3619   1.804       .  S
C3616      C3617   1.397       .  A
C3617      C3618   1.396       .  A
C3617      H3624   1.085       .  S
C3618      S3620   1.804       .  S
S3619      H3622   1.407       .  S
S3620      H3621   1.408       .  S
C3625      C3626   1.402       .  A
C3625      C3630   1.411       .  A
C3626      C3627   1.396       .  A
C3626      H3635   1.084       .  S
C3627      C3628   1.409       .  A
C3627      S3631   1.805       .  S
C3628      C3629   1.402       .  A
C3629      C3630   1.398       .  A
C3629      H3636   1.085       .  S
C3630      S3632   1.804       .  S
S3631      H3634   1.407       .  S
S3632      H3633   1.407       .  S
C3637      C3638   1.409       .  A
C3637      C3642   1.414       .  A
C3638      C3639   1.401       .  A
C3638      H3647   1.084       .  S
C3639      C3640   1.416       .  A
C3639      S3643   1.800       .  S
C3640      C3641   1.411       .  A
C3641      C3642   1.398       .  A
C3641      H3648   1.084       .  S
C3642      S3644   1.801       .  S
S3644      H3645   1.408       .  S
C3649      C3650   1.406       .  A
C3649      C3654   1.412       .  A
C3650      C3651   1.399       .  A
C3650      H3659   1.084       .  S
C3651      C3652   1.409       .  A
C3651      S3655   1.804       .  S
C3652      C3653   1.402       .  A
C3653      C3654   1.397       .  A
C3653      H3660   1.085       .  S
C3654      S3656   1.803       .  S
S3655      H3658   1.406       .  S
S3656      H3657   1.407       .  S
C3661      C3662   1.409       .  A
C3661      C3666   1.418       .  A
C3662      C3663   1.402       .  A
C3662      H3671   1.083       .  S
C3663      C3664   1.415       .  A
C3663      S3667   1.804       .  S
C3664      C3665   1.405       .  A
C3665      C3666   1.404       .  A
S3667      H3670   1.407       .  S
C3673      C3674   1.401       .  A
C3673      C3678   1.410       .  A
C3674      C3675   1.398       .  A
C3674      H3683   1.084       .  S
C3675      C3676   1.413       .  A
C3675      S3679   1.804       .  S
C3676      C3677   1.404       .  A
C3677      C3678   1.398       .  A
C3677      H3684   1.084       .  S
C3678      S3680   1.804       .  S
S3679      H3682   1.407       .  S
S3680      H3681   1.407       .  S
C3685      C3686   1.400       .  A
C3685      C3690   1.416       .  A
C3686      C3687   1.405       .  A
C3686      H3695   1.083       .  S
C3687      C3688   1.422       .  A
C3687      S3691   1.811       .  S
C3688      C3689   1.404       .  A
C3689      C3690   1.402       .  A
C3689      H3696   1.083       .  S
C3690      S3692   1.804       .  S
S3691      H3694   1.407       .  S
S3692      H3693   1.408       .  S
C3697      C3698   1.398       .  A
C3697      C3702   1.412       .  A
C3698      C3699   1.398       .  A
C3698      H3707   1.084       .  S
C3699      C3700   1.416       .  A
C3699      S3703   1.804       .  S
C3700      C3701   1.401       .  A
C3701      C3702   1.394       .  A
C3701      H3708   1.084       .  S
C3702      S3704   1.806       .  S
S3703      H3706   1.407       .  S
S3704      H3705   1.407       .  S
C3709      C3710   1.404       .  A
C3709      C3714   1.407       .  A
C3710      C3711   1.404       .  A
C3710      H3719   1.085       .  S
C3711      C3712   1.416       .  A
C3711      S3715   1.801       .  S
C3712      C3713   1.409       .  A
C3713      C3714   1.393       .  A
C3713      H3720   1.084       .  S
C3714      S3716   1.802       .  S
S3715      H3718   1.407       .  S
S3716      H3717   1.407       .  S
C3721      C3722   1.411       .  A
C3721      C3726   1.416       .  A
C3722      C3723   1.403       .  A
C3722      H3731   1.084       .  S
C3723      C3724   1.412       .  A
C3723      S3727   1.802       .  S
C3724      C3725   1.408       .  A
C3725      C3726   1.403       .  A
C3725      H3732   1.084       .  S
C3726      S3728   1.801       .  S
S3728      H3729   1.408       .  S
C3733      C3734   1.402       .  A
C3733      C3738   1.411       .  A
C3734      C3735   1.400       .  A
C3734      H3743   1.084       .  S
C3735      C3736   1.413       .  A
C3735      S3739   1.803       .  S
C3736      C3737   1.404       .  A
C3737      C3738   1.400       .  A
C3737      H3744   1.084       .  S
C3738      S3740   1.804       .  S
S3739      H3742   1.407       .  S
S3740      H3741   1.407       .  S
C3745      C3746   1.406       .  A
C3745      C3750   1.415       .  A
C3746      C3747   1.391       .  A
C3746      H3755   1.084       .  S
C3747      C3748   1.411       .  A
C3747      S3751   1.806       .  S
C3748      C3749   1.409       .  A
C3749      C3750   1.409       .  A
C3749      H3756   1.084       .  S
C3750      S3752   1.801       .  S
S3751      H3754   1.407       .  S
C3757      C3758   1.402       .  A
C3757      C3762   1.418       .  A
C3758      C3759   1.394       .  A
C3758      H3767   1.083       .  S
C3759      C3760   1.411       .  A
C3759      S3763   1.805       .  S
C3760      C3761   1.399       .  A
C3761      C3762   1.401       .  A
C3761      H3768   1.083       .  S
C3762      S3764   1.803       .  S
S3763      H3766   1.407       .  S
S3764      H3765   1.407       .  S
C3769      C3770   1.404       .  A
C3769      C3774   1.416       .  A
C3770      C3771   1.399       .  A
C3770      H3779   1.084       .  S
C3771      C3772   1.413       .  A
C3771      S3775   1.806       .  S
C3772      C3773   1.406       .  A
C3773      C3774   1.409       .  A
C3773      H3780   1.084       .  S
C3774      S3776   1.802       .  S
S3775      H3778   1.406       .  S
S3776      H3777   1.406       .  S
C3781      C3786   1.417       .  A
C3782      C3783   1.397   1_554  A
C3782      H3791   1.084       .  S
C3783      S3787   1.805       .  S
C3784      C3785   1.407       .  A
C3785      C3786   1.407   1_556  A
C3785      H3792   1.083       .  S
C3786      S3788   1.799       .  S
S3787      H3790   1.408       .  S
S3788      H3789   1.406       .  S
C3793      C3794   1.409       .  A
C3793      C3798   1.421       .  A
C3794      C3795   1.404       .  A
C3794      H3803   1.083       .  S
C3795      C3796   1.415       .  A
C3795      S3799   1.804       .  S
C3796      C3797   1.406       .  A
C3797      C3798   1.408       .  A
C3797      H3804   1.084       .  S
S3799      H3802   1.407       .  S
S3800      H3801   1.408       .  S
C3805      C3806   1.407       .  A
C3805      C3810   1.417       .  A
C3806      C3807   1.399   1_554  A
C3806      H3815   1.084       .  S
C3807      C3808   1.414       .  A
C3807      S3811   1.800       .  S
C3808      C3809   1.408       .  A
C3809      C3810   1.402   1_556  A
C3809      H3816   1.084       .  S
C3810      S3812   1.802       .  S
S3811      H3814   1.407       .  S
S3812      H3813   1.407       .  S
C3817      C3818   1.404       .  A
C3817      C3822   1.411       .  A
C3818      C3819   1.402       .  A
C3818      H3827   1.084       .  S
C3819      C3820   1.412       .  A
C3819      S3823   1.803       .  S
C3820      C3821   1.403       .  A
C3821      C3822   1.397       .  A
C3821      H3828   1.084       .  S
C3822      S3824   1.805       .  S
S3823      H3826   1.407       .  S
S3824      H3825   1.407       .  S
C3829      C3830   1.410       .  A
C3829      C3834   1.413       .  A
C3830      C3831   1.403       .  A
C3830      H3839   1.084       .  S
C3831      C3832   1.413       .  A
C3831      S3835   1.800       .  S
C3832      C3833   1.411       .  A
C3833      C3834   1.405       .  A
C3833      H3840   1.084       .  S
C3834      S3836   1.800       .  S
S3835      H3838   1.407       .  S
S3836      H3837   1.407       .  S
C3841      C3842   1.406       .  A
C3841      C3846   1.410       .  A
C3842      C3843   1.407       .  A
C3842      H3851   1.084       .  S
C3843      C3844   1.416       .  A
C3843      S3847   1.800       .  S
C3844      C3845   1.407       .  A
C3845      C3846   1.392       .  A
C3845      H3852   1.084       .  S
C3846      S3848   1.804       .  S
S3848      H3849   1.407       .  S
C3853      C3854   1.399       .  A
C3853      C3858   1.410       .  A
C3854      C3855   1.404       .  A
C3854      H3863   1.084       .  S
C3855      C3856   1.419       .  A
C3855      S3859   1.809       .  S
C3856      C3857   1.403       .  A
C3857      C3858   1.395       .  A
C3857      H3864   1.084       .  S
C3858      S3860   1.806       .  S
S3859      H3862   1.407       .  S
S3860      H3861   1.407       .  S
C3865      C3866   1.409       .  A
C3865      C3870   1.406       .  A
C3866      C3867   1.410       .  A
C3866      H3875   1.086       .  S
C3867      C3868   1.418       .  A
C3867      S3871   1.799       .  S
C3868      C3869   1.417       .  A
C3869      C3870   1.402       .  A
C3869      H3876   1.085       .  S
C3870      S3872   1.802       .  S
S3871      H3874   1.407       .  S
S3872      H3873   1.405       .  S
C3877      C3878   1.402       .  A
C3877      C3882   1.419       .  A
C3878      C3879   1.402       .  A
C3878      H3887   1.084       .  S
C3879      C3880   1.419       .  A
C3879      S3883   1.804       .  S
C3880      C3881   1.403       .  A
C3881      C3882   1.401       .  A
C3881      H3888   1.084       .  S
C3882      S3884   1.804       .  S
S3883      H3886   1.408       .  S
S3884      H3885   1.408       .  S
C3889      C3890   1.402       .  A
C3889      C3894   1.414       .  A
C3890      C3891   1.399       .  A
C3890      H3899   1.084       .  S
C3891      C3892   1.413       .  A
C3891      S3895   1.802       .  S
C3892      C3893   1.401       .  A
C3893      C3894   1.397       .  A
C3893      H3900   1.085       .  S
C3894      S3896   1.801       .  S
S3895      H3898   1.405       .  S
S3896      H3897   1.407       .  S
C3901      C3902   1.404       .  A
C3901      C3906   1.408       .  A
C3902      C3903   1.408       .  A
C3902      H3911   1.084       .  S
C3903      C3904   1.418       .  A
C3903      S3907   1.800       .  S
C3904      C3905   1.409       .  A
C3905      C3906   1.392       .  A
C3905      H3912   1.084       .  S
S3907      H3910   1.407       .  S
S3908      H3909   1.407       .  S
C3913      C3914   1.401       .  A
C3913      C3918   1.405       .  A
C3914      C3915   1.398       .  A
C3914      H3923   1.087       .  S
C3915      C3916   1.414       .  A
C3915      S3919   1.802       .  S
C3916      C3917   1.408       .  A
C3917      C3918   1.394       .  A
C3917      H3924   1.086       .  S
C3918      S3920   1.804       .  S
S3919      H3922   1.408       .  S
S3920      H3921   1.407       .  S
C3925      C3930   1.417       .  A
C3926      C3927   1.400   1_554  A
C3926      H3935   1.084       .  S
C3927      S3931   1.804       .  S
C3928      C3929   1.402       .  A
C3929      C3930   1.403   1_556  A
C3929      H3936   1.084       .  S
C3930      S3932   1.799       .  S
S3931      H3934   1.407       .  S
S3932      H3933   1.407       .  S
C3937      C3938   1.404       .  A
C3937      C3942   1.408       .  A
C3938      C3939   1.403       .  A
C3938      H3947   1.084       .  S
C3939      C3940   1.416       .  A
C3939      S3943   1.803       .  S
C3940      C3941   1.405       .  A
C3941      C3942   1.397       .  A
C3941      H3948   1.084       .  S
C3942      S3944   1.800       .  S
S3943      H3946   1.407       .  S
S3944      H3945   1.406       .  S
C3949      C3950   1.410       .  A
C3949      C3954   1.420       .  A
C3950      C3951   1.394       .  A
C3950      H3959   1.084       .  S
C3951      C3952   1.408       .  A
C3951      S3955   1.806       .  S
C3952      C3953   1.405       .  A
C3953      C3954   1.410       .  A
C3953      H3960   1.084       .  S
C3954      S3956   1.799       .  S
S3955      H3958   1.407       .  S
S3956      H3957   1.407       .  S
C3961      C3962   1.402       .  A
C3961      C3966   1.405       .  A
C3962      C3963   1.401       .  A
C3962      H3971   1.084       .  S
C3963      C3964   1.418       .  A
C3963      S3967   1.802       .  S
C3964      C3965   1.410       .  A
C3965      C3966   1.394       .  A
C3965      H3972   1.083       .  S
C3966      S3968   1.804       .  S
S3967      H3970   1.408       .  S
S3968      H3969   1.406       .  S
C3973      C3974   1.407       .  A
C3973      C3978   1.411       .  A
C3974      C3975   1.406       .  A
C3974      H3983   1.084       .  S
C3975      C3976   1.414       .  A
C3975      S3979   1.801       .  S
C3976      C3977   1.406       .  A
C3977      C3978   1.392       .  A
C3977      H3984   1.084       .  S
C3978      S3980   1.806       .  S
S3979      H3982   1.407       .  S
S3980      H3981   1.407       .  S
C3985      C3986   1.405       .  A
C3985      C3990   1.409       .  A
C3986      C3987   1.407       .  A
C3986      H3995   1.084       .  S
C3987      C3988   1.415       .  A
C3987      S3991   1.798       .  S
C3988      C3989   1.411       .  A
C3989      C3990   1.401       .  A
C3989      H3996   1.084       .  S
S3991      H3994   1.407       .  S
S3992      H3993   1.406       .  S
C3997      C3998   1.407       .  A
C3997      C4002   1.416       .  A
C3998      C3999   1.398       .  A
C3998      H4007   1.084       .  S
C3999      C4000   1.410       .  A
C3999      S4003   1.804       .  S
C4000      C4001   1.404       .  A
C4001      C4002   1.402       .  A
C4001      H4008   1.084       .  S
C4002      S4004   1.802       .  S
S4003      H4006   1.407       .  S
S4004      H4005   1.407       .  S
C4009      C4010   1.403       .  A
C4009      C4014   1.415       .  A
C4010      C4011   1.400       .  A
C4010      H4019   1.084       .  S
C4011      C4012   1.413       .  A
C4011      S4015   1.801       .  S
C4012      C4013   1.403       .  A
C4013      C4014   1.399       .  A
C4013      H4020   1.085       .  S
C4014      S4016   1.805       .  S
S4015      H4018   1.407       .  S
S4016      H4017   1.407       .  S
C4021      C4022   1.410       .  A
C4021      C4026   1.417       .  A
C4022      C4023   1.403       .  A
C4022      H4031   1.084       .  S
C4023      C4024   1.414       .  A
C4023      S4027   1.804       .  S
C4024      C4025   1.403       .  A
C4025      C4026   1.403       .  A
C4025      H4032   1.084       .  S
C4026      S4028   1.792       .  S
S4027      H4030   1.407       .  S
S4028      H4029   1.407       .  S
C4033      C4034   1.406       .  A
C4033      C4038   1.410       .  A
C4034      C4035   1.401       .  A
C4034      H4043   1.084       .  S
C4035      C4036   1.412       .  A
C4035      S4039   1.798       .  S
C4036      C4037   1.406       .  A
C4037      C4038   1.398       .  A
C4037      H4044   1.084       .  S
C4038      S4040   1.800       .  S
S4039      H4042   1.407       .  S
S4040      H4041   1.406       .  S
C4045      C4046   1.401       .  A
C4045      C4050   1.410       .  A
C4046      C4047   1.398       .  A
C4046      H4055   1.084       .  S
C4047      C4048   1.413       .  A
C4047      S4051   1.803       .  S
C4048      C4049   1.405       .  A
C4049      C4050   1.398       .  A
C4049      H4056   1.084       .  S
C4050      S4052   1.805       .  S
S4052      H4053   1.407       .  S
C4057      C4058   1.402       .  A
C4057      C4062   1.417       .  A
C4058      C4059   1.402       .  A
C4058      H4067   1.084       .  S
C4059      C4060   1.420       .  A
C4059      S4063   1.804       .  S
C4060      C4061   1.401       .  A
C4061      C4062   1.401       .  A
C4061      H4068   1.084       .  S
C4062      S4064   1.796       .  S
S4063      H4066   1.408       .  S
S4064      H4065   1.406       .  S
C4069      C4070   1.405       .  A
C4069      C4074   1.417       .  A
C4070      C4071   1.398       .  A
C4070      H4079   1.084       .  S
C4071      C4072   1.417       .  A
C4071      S4075   1.804       .  S
C4072      C4073   1.407       .  A
C4073      C4074   1.405       .  A
C4073      H4080   1.084       .  S
C4074      S4076   1.801       .  S
S4075      H4078   1.407       .  S
S4076      H4077   1.406       .  S
C4081      C4082   1.402       .  A
C4081      C4086   1.410       .  A
C4082      C4083   1.395       .  A
C4082      H4091   1.084       .  S
C4083      C4084   1.411       .  A
C4083      S4087   1.804       .  S
C4084      C4085   1.406       .  A
C4085      C4086   1.401       .  A
C4086      S4088   1.803       .  S
S4088      H4089   1.405       .  S
C4093      C4094   1.407       .  A
C4093      C4098   1.409       .  A
C4094      C4095   1.402       .  A
C4094      H4103   1.084       .  S
C4095      C4096   1.414       .  A
C4095      S4099   1.801       .  S
C4096      C4097   1.410       .  A
C4097      C4098   1.394       .  A
C4097      H4104   1.083       .  S
C4098      S4100   1.802       .  S
S4099      H4102   1.407       .  S
S4100      H4101   1.407       .  S
C4105      C4106   1.406       .  A
C4105      C4110   1.420       .  A
C4106      H4115   1.084       .  S
C4107      C4108   1.416       .  A
C4107      S4111   1.805       .  S
C4108      C4109   1.404       .  A
C4109      H4116   1.084       .  S
C4110      S4112   1.803       .  S
S4111      H4114   1.407       .  S
S4112      H4113   1.408       .  S
C4117      C4118   1.401       .  A
C4117      C4122   1.414       .  A
C4118      C4119   1.396       .  A
C4118      H4127   1.084       .  S
C4119      C4120   1.416       .  A
C4119      S4123   1.805       .  S
C4120      C4121   1.404       .  A
C4121      C4122   1.401       .  A
C4121      H4128   1.084       .  S
C4122      S4124   1.804       .  S
S4123      H4126   1.407       .  S
S4124      H4125   1.407       .  S
C4129      C4130   1.399       .  A
C4129      C4134   1.417       .  A
C4130      C4131   1.392       .  A
C4130      H4139   1.085       .  S
C4131      C4132   1.410       .  A
C4131      S4135   1.805       .  S
C4132      C4133   1.400       .  A
C4133      C4134   1.400       .  A
C4133      H4140   1.085       .  S
C4134      S4136   1.804       .  S
S4136      H4137   1.407       .  S
C4141      C4142   1.408       .  A
C4141      C4146   1.416       .  A
C4142      C4143   1.396       .  A
C4142      H4151   1.084       .  S
C4143      C4144   1.411       .  A
C4143      S4147   1.805       .  S
C4144      C4145   1.405       .  A
C4145      C4146   1.402       .  A
C4145      H4152   1.084       .  S
C4146      S4148   1.802       .  S
S4147      H4150   1.407       .  S
S4148      H4149   1.408       .  S
C4153      C4154   1.407       .  A
C4153      C4158   1.410       .  A
C4154      C4155   1.399       .  A
C4154      H4163   1.084       .  S
C4155      C4156   1.416       .  A
C4155      S4159   1.801       .  S
C4156      C4157   1.412       .  A
C4157      C4158   1.395       .  A
C4157      H4164   1.083       .  S
C4158      S4160   1.804       .  S
S4159      H4162   1.408       .  S
S4160      H4161   1.408       .  S
C4165      C4166   1.399       .  A
C4165      C4170   1.408       .  A
C4166      C4167   1.397       .  A
C4166      H4175   1.084       .  S
C4167      C4168   1.414       .  A
C4167      S4171   1.803       .  S
C4168      C4169   1.400       .  A
C4169      C4170   1.390       .  A
C4169      H4176   1.085       .  S
C4170      S4172   1.805       .  S
S4172      H4173   1.406       .  S
C4177      C4178   1.409       .  A
C4177      C4182   1.416       .  A
C4178      C4179   1.404       .  A
C4178      H4187   1.084       .  S
C4179      C4180   1.412       .  A
C4179      S4183   1.803   1_655  S
C4180      C4181   1.404       .  A
C4181      C4182   1.401       .  A
C4181      H4188   1.084       .  S
C4182      S4184   1.803       .  S
S4183      H4186   1.406   1_455  S
S4184      H4185   1.407       .  S
C4189      C4190   1.406       .  A
C4189      C4194   1.407       .  A
C4190      C4191   1.402       .  A
C4190      H4199   1.084       .  S
C4191      C4192   1.413       .  A
C4191      S4195   1.800       .  S
C4192      C4193   1.411       .  A
C4193      C4194   1.401       .  A
C4193      H4200   1.084       .  S
C4194      S4196   1.803       .  S
S4195      H4198   1.407       .  S
S4196      H4197   1.406       .  S
C4201      C4202   1.410       .  A
C4201      C4206   1.419       .  A
C4202      C4203   1.397       .  A
C4202      H4211   1.083       .  S
C4203      C4204   1.406       .  A
C4203      S4207   1.804       .  S
C4204      C4205   1.401       .  A
C4205      C4206   1.399       .  A
C4205      H4212   1.084       .  S
C4206      S4208   1.803       .  S
S4207      H4210   1.406       .  S
C4213      C4214   1.410       .  A
C4213      C4218   1.418       .  A
C4214      C4215   1.397       .  A
C4214      H4223   1.084       .  S
C4215      C4216   1.407       .  A
C4215      S4219   1.805       .  S
C4216      C4217   1.404       .  A
C4217      C4218   1.406       .  A
C4217      H4224   1.084       .  S
C4218      S4220   1.800       .  S
S4219      H4222   1.407       .  S
S4220      H4221   1.407       .  S
C4225      C4226   1.400       .  A
C4225      C4230   1.413       .  A
C4226      C4227   1.400       .  A
C4226      H4235   1.083       .  S
C4227      C4228   1.419       .  A
C4227      S4231   1.804       .  S
C4228      C4229   1.404       .  A
C4229      C4230   1.400       .  A
C4229      H4236   1.083       .  S
C4230      S4232   1.803       .  S
S4231      H4234   1.408       .  S
C4237      C4238   1.406   1_655  A
C4237      C4242   1.413       .  A
C4238      H4247   1.084       .  S
C4239      C4240   1.419       .  A
C4239      S4243   1.802       .  S
C4240      C4241   1.415       .  A
C4241      H4248   1.083       .  S
C4242      S4244   1.799       .  S
S4243      H4246   1.408       .  S
S4244      H4245   1.406       .  S
