geometry optimzed in LAMMPS
_audit_creation_date              2020-12-01 
_audit_creation_method            'lammps2cif' 
_symmetry_space_group_name_H-M    'P1' 
_symmetry_Int_Tables_number       1 
_symmetry_cell_setting            triclinic 
loop_ 
_symmetry_equiv_pos_as_xyz 
  x,y,z 
_cell_length_a                    26.98285698 
_cell_length_b                    27.019036556589466 
_cell_length_c                    42.26114759697006 
_cell_angle_alpha                 89.79812437758126 
_cell_angle_beta                  89.94348016111415 
_cell_angle_gamma                 90.17587789349085 
loop_ 
_atom_site_label 
_atom_site_type_symbol 
_atom_site_fract_x 
_atom_site_fract_y 
_atom_site_fract_z 
_atom_site_charge 
O1          O  0.04431302  0.00509200  0.72332779    -0.81800
C2          C  0.12832112  0.13274263  0.63543410     0.97600
O3          O  0.13696912  0.08635216  0.63616620    -0.70900
O4          O  0.15988885  0.03997177  0.68771651    -0.74500
Al5        Al  0.10659506  0.03238674  0.65981858     1.49000
C6          C  0.16375259  0.04781403  0.71674641     0.92900
O7          O  0.07424402  0.14028722  0.72794436    -0.80700
O8          O  0.96929686  0.08636495  0.67103882    -0.74200
Al9        Al  0.05956680  0.07219160  0.72251978     1.90100
O10         O  0.02439088  0.16606729  0.69082283    -0.73300
O11         O  0.02542434  0.08419331  0.61916699    -0.73200
O12         O  0.08757734  0.15057855  0.64480207    -0.78800
O13         O  0.06272069  0.01440956  0.62650109    -0.77000
O14         O  0.06584663  0.07358841  0.68018248    -1.13200
O15         O  0.08187333  0.97396805  0.68153765    -0.72400
C16         C  0.05611906  0.96877150  0.70649200     0.98400
C17         C  0.04826963  0.17386172  0.71589382     0.94800
Al18       Al  0.02991179  0.11761264  0.65832449     1.55600
O19         O  0.12667853  0.05937278  0.73289837    -0.77000
C20         C  0.03709249  0.04218582  0.60942623     0.98900
C21         C  0.95791266  0.08063398  0.69990224     0.93800
O22         O  0.99013979  0.08370909  0.72154333    -0.82300
O23         O  0.45111024  0.50650812  0.71998739    -0.81800
C24         C  0.37096367  0.37400658  0.63642832     0.97600
O25         O  0.35975435  0.41996684  0.63776459    -0.70900
O26         O  0.34095378  0.47532931  0.68736355    -0.74500
Al27       Al  0.39212140  0.47665270  0.65707657     1.49000
C28         C  0.33651545  0.46344657  0.71584111     0.92900
O29         O  0.43028603  0.36847568  0.72569618    -0.80700
O30         O  0.53096556  0.42873619  0.66738616    -0.74200
Al31       Al  0.44021433  0.43804725  0.71971435     1.90100
O32         O  0.48162990  0.34708827  0.68853067    -0.73300
O33         O  0.47387063  0.42428499  0.61555890    -0.73200
O34         O  0.41381011  0.35808656  0.64369420    -0.78800
O35         O  0.43099587  0.49083364  0.62063854    -0.77000
O36         O  0.43397012  0.43659252  0.67743949    -1.13200
O37         O  0.42114628  0.53595888  0.67508300    -0.72400
C38         C  0.44405460  0.54193359  0.70106855     0.98400
C39         C  0.45968909  0.33753775  0.71399622     0.94800
Al40       Al  0.47135567  0.39379836  0.65574042     1.55600
O41         O  0.37249268  0.44581712  0.73067717    -0.77000
C42         C  0.45835631  0.46390984  0.60429445     0.98900
C43         C  0.54208957  0.43625820  0.69620023     0.93800
O44         O  0.51028948  0.43176957  0.71806826    -0.82300
O45         O  0.49591456  0.58445738  0.28141219    -0.81800
C46         C  0.62857273  0.63591193  0.37083690     0.97600
O47         O  0.58809186  0.65267477  0.36027867    -0.70900
O48         O  0.52854183  0.66588621  0.31229719    -0.74500
Al49       Al  0.53201105  0.61804536  0.34536394     1.49000
C50         C  0.55372652  0.67393366  0.28766139     0.92900
O51         O  0.63227334  0.55763195  0.27293584    -0.80700
O52         O  0.58976402  0.47533228  0.32379274    -0.74200
Al53       Al  0.56508502  0.57202935  0.28219675     1.90100
O54         O  0.66573022  0.54510569  0.31906917    -0.73300
O55         O  0.56561024  0.51552077  0.37794646    -0.73200
O56         O  0.63827915  0.58974151  0.37033145    -0.78800
O57         O  0.52545691  0.58397853  0.38453796    -0.77000
O58         O  0.56996971  0.57470087  0.32457365    -1.13200
O59         O  0.47258592  0.58565341  0.33136670    -0.72400
C60         C  0.46269167  0.58006788  0.30231253     0.98400
C61         C  0.66954422  0.54903966  0.28966505     0.94800
Al62       Al  0.61110185  0.53502306  0.34589081     1.55600
O63         O  0.58038218  0.64037510  0.27606161    -0.77000
C64         C  0.53757532  0.54196467  0.39428880     0.98900
C65         C  0.56258993  0.46893020  0.29956650     0.93800
O66         O  0.54887060  0.50482348  0.28271556    -0.82300
O67         O  0.00771317  0.92724798  0.28428998    -0.81800
C68         C  0.87384623  0.87328646  0.37202708     0.97600
O69         O  0.91535451  0.85562917  0.36334243    -0.70900
O70         O  0.97856658  0.84110419  0.31627530    -0.74500
Al71       Al  0.97287653  0.88930601  0.34845873     1.49000
C72         C  0.95419156  0.83204299  0.29171991     0.92900
O73         O  0.86964392  0.94064810  0.27702216    -0.80700
O74         O  0.92391804  0.03293169  0.32872886    -0.74200
Al75       Al  0.93774663  0.93350296  0.28504371     1.90100
O76         O  0.84199274  0.97310724  0.32054887    -0.73300
O77         O  0.93929045  0.98900770  0.38320957    -0.73200
O78         O  0.86434264  0.91958451  0.37050875    -0.78800
O79         O  0.97990459  0.92088344  0.38783873    -0.77000
O80         O  0.93501149  0.93286054  0.32751537    -1.13200
O81         O  0.03216538  0.92236995  0.33418510    -0.72400
C82         C  0.04080207  0.93208096  0.30524437     0.98400
C83         C  0.83517966  0.95936397  0.29263317     0.94800
Al84       Al  0.89606953  0.97463363  0.34884643     1.55600
O85         O  0.92697639  0.86458649  0.27984799    -0.77000
C86         C  0.96713746  0.96151253  0.39892077     0.98900
C87         C  0.94292154  0.03803474  0.30143678     0.93800
O88         O  0.94811752  0.00177680  0.28312485    -0.82300
O89         O  0.92889252  0.49515860  0.78641547    -0.81800
C90         C  0.86673120  0.62738022  0.87152813     0.97600
O91         O  0.85158616  0.58508113  0.86260728    -0.70900
O92         O  0.84262422  0.51943868  0.81682026    -0.74500
Al93       Al  0.88946068  0.52973502  0.84948774     1.49000
C94         C  0.83206445  0.54315817  0.79215994     0.92900
O95         O  0.93810553  0.63352235  0.77656442    -0.80700
O96         O  0.03022185  0.59108774  0.82854184    -0.74200
Al97       Al  0.93258861  0.56537137  0.78592364     1.90100
O98         O  0.96123513  0.66584018  0.82125234    -0.73300
O99         O  0.98851508  0.56975782  0.88263315    -0.73200
O100        O  0.91266340  0.63894920  0.87148866    -0.78800
O101        O  0.92136254  0.52730092  0.88911035    -0.77000
O102        O  0.93104117  0.56970571  0.82821161    -1.13200
O103        O  0.92629986  0.47217029  0.83672074    -0.72400
C104        C  0.93546294  0.46295400  0.80782594     0.98400
C105        C  0.95056331  0.67030068  0.79260959     0.94800
Al106      Al  0.96955722  0.61241754  0.84916799     1.55600
O107        O  0.86286323  0.57292006  0.78046212    -0.77000
C108        C  0.96225776  0.54176074  0.89921166     0.98900
C109        C  0.03701659  0.56921215  0.80237641     0.93800
O110        O  0.00122010  0.55781422  0.78476040    -0.82300
O111        O  0.57687563  0.01579221  0.78436198    -0.81800
C112        C  0.63204395  0.87715682  0.86853430     0.97600
O113        O  0.64807568  0.91944692  0.86024158    -0.70900
O114        O  0.66019949  0.98484355  0.81498226    -0.74500
Al115      Al  0.61269397  0.97618226  0.84734647     1.49000
C116        C  0.66959411  0.96193386  0.78993637     0.92900
O117        O  0.55878402  0.87837771  0.77232804    -0.80700
O118        O  0.47094903  0.92063773  0.82546015    -0.74200
Al119      Al  0.56854725  0.94558589  0.78314917     1.90100
O120        O  0.53718944  0.84357554  0.81669952    -0.73300
O121        O  0.51251561  0.93772461  0.88044398    -0.73200
O122        O  0.58599533  0.86632443  0.86776242    -0.78800
O123        O  0.58029376  0.97909794  0.88680311    -0.77000
O124        O  0.56998665  0.93873704  0.82547287    -1.13200
O125        O  0.57889592  0.03559882  0.83503568    -0.72400
C126        C  0.57286419  0.04744436  0.80623667     0.98400
C127        C  0.54648737  0.84069622  0.78772876     0.94800
Al128      Al  0.53028342  0.89604381  0.84578459     1.55600
O129        O  0.63763133  0.93413895  0.77766566    -0.77000
C130        C  0.53923586  0.96522479  0.89706732     0.98900
C131        C  0.46484003  0.94550296  0.80021751     0.93800
O132        O  0.50060712  0.95730783  0.78261357    -0.82300
O133        O  0.00239637  0.44784200  0.22338282    -0.81800
C134        C  0.13466885  0.37827881  0.13528051     0.97600
O135        O  0.08873993  0.36681592  0.13587507    -0.74100
O136        O  0.04086790  0.34015348  0.18678621    -0.74500
Al137      Al  0.03264820  0.39352561  0.15863392     1.49000
C138        C  0.05249510  0.33567472  0.21529551     0.92900
O139        O  0.14064459  0.43338731  0.22651573    -0.80700
O140        O  0.07626742  0.53374732  0.17082079    -0.74200
Al141      Al  0.07101454  0.44053365  0.22163754     1.90100
O142        O  0.16035982  0.48635739  0.18971201    -0.73300
O143        O  0.08002460  0.47896556  0.11843294    -0.73200
O144        O  0.15021427  0.42049751  0.14411531    -0.78800
O145        O  0.01322399  0.43612568  0.12517159    -0.77000
O146        O  0.07167619  0.43617463  0.17930207    -1.13200
O147        O  0.97299796  0.41523847  0.17945454    -0.72400
C148        C  0.96665143  0.43713775  0.20559822     0.98400
C149        C  0.17109910  0.46311524  0.21445357     0.94800
Al150      Al  0.11275835  0.47609785  0.15765462     1.55600
O151        O  0.06622193  0.37235758  0.23103037    -0.77000
C152        C  0.03895413  0.46464573  0.10861669     0.98900
C153        C  0.06770015  0.54305658  0.19977786     0.93800
O154        O  0.07439259  0.51080169  0.22113627    -0.82300
O155        O  0.50041874  0.04957272  0.22180700    -0.81800
C156        C  0.37091905  0.13079216  0.13493821     0.97600
O157        O  0.41729447  0.14020254  0.13557302    -0.70900
O158        O  0.46445451  0.16424369  0.18689101    -0.74500
Al159      Al  0.47214289  0.11100429  0.15849167     1.49000
C160        C  0.45664128  0.16744774  0.21602984     0.92900
O161        O  0.36427468  0.07510947  0.22645354    -0.80700
O162        O  0.42259633  0.97223619  0.16948115    -0.74200
Al163      Al  0.43298604  0.06260579  0.22108366     1.90100
O164        O  0.34052917  0.02399796  0.18957234    -0.73300
O165        O  0.42149431  0.02907466  0.11746022    -0.73200
O166        O  0.35355691  0.08924916  0.14376670    -0.78800
O167        O  0.49052153  0.06808581  0.12472748    -0.77000
O168        O  0.43167592  0.06914774  0.17880360    -1.13200
O169        O  0.53121784  0.08711536  0.17968285    -0.72400
C170        C  0.53671955  0.06214253  0.20492194     0.98400
C171        C  0.33156733  0.04793379  0.21439298     0.94800
Al172      Al  0.38857842  0.03195588  0.15695738     1.55600
O173        O  0.44455758  0.12994755  0.23177664    -0.77000
C174        C  0.46328598  0.04182079  0.10765832     0.98900
C175        C  0.43040537  0.96139183  0.19831985     0.93800
O176        O  0.42340652  0.99277951  0.22000089    -0.82300
C177        C  0.26807399  0.20648891  0.12002613     0.29800
C178        C  0.21731432  0.21770359  0.11815716    -0.36500
C179        C  0.20489580  0.26810562  0.11972421     0.15800
C180        C  0.23999070  0.30496153  0.12309867     0.21600
C181        C  0.29077161  0.29380045  0.12448149    -0.34600
C182        C  0.30321601  0.24345270  0.12267297     0.15700
O183        O  0.28751617  0.16178944  0.12224518    -0.26700
C184        C  0.33587586  0.17015336  0.12586813     0.05500
C185        C  0.34774731  0.22032998  0.12612889    -0.31500
O186        O  0.21996579  0.34900076  0.12728772    -0.23400
C187        C  0.17134466  0.34045692  0.12626305    -0.03400
C188        C  0.15985640  0.29075041  0.12146476    -0.17800
H189        H  0.18931289  0.18900465  0.11697335     0.20200
H190        H  0.31852119  0.32222988  0.12808390     0.18600
H191        H  0.38340877  0.23724337  0.13080120     0.18500
H192        H  0.12364811  0.27338597  0.12157768     0.14400
C193        C  0.53081453  0.00740393  0.97548995     0.29800
C194        C  0.54799945  0.02962291  0.00350939    -0.36500
C195        C  0.51704023  0.02504014  0.03014502     0.15800
C196        C  0.47221336  0.00040565  0.02916851     0.21600
C197        C  0.45505824  0.97824339  0.00117391    -0.34600
C198        C  0.48599295  0.98276879  0.97457622     0.15700
O199        O  0.55442593  0.00585229  0.94813039    -0.26700
C200        C  0.52436978  0.97994964  0.92935111     0.05500
C201        C  0.48111161  0.96475001  0.94455607    -0.31500
O202        O  0.44851809  0.00172261  0.05647900    -0.23400
C203        C  0.47848062  0.02740019  0.07538571    -0.03400
C204        C  0.52181939  0.04279534  0.06026883    -0.17800
H205        H  0.58312905  0.04899324  0.00448718     0.20200
H206        H  0.41995270  0.95883292  0.00020403     0.18600
H207        H  0.45129999  0.94230526  0.93517232     0.18500
H208        H  0.55157888  0.06518846  0.06977089     0.14400
C209        C  0.97326047  0.49705574  0.97665395     0.29800
C210        C  0.95851576  0.47071866  0.00377266    -0.36500
C211        C  0.98658912  0.47913930  0.03113872     0.15800
C212        C  0.02657084  0.51110937  0.03170903     0.21600
C213        C  0.04126981  0.53752116  0.00460302    -0.34600
C214        C  0.01322641  0.52904598  0.97722519     0.15700
O215        O  0.95128382  0.49599545  0.94883796    -0.26700
C216        C  0.97768232  0.52742390  0.93126301     0.05500
C217        C  0.01683283  0.54900076  0.94764255    -0.31500
O218        O  0.04892997  0.51164251  0.05940412    -0.23400
C219        C  0.02278838  0.47986058  0.07688656    -0.03400
C220        C  0.98336045  0.45866668  0.06059490    -0.17800
H221        H  0.92733961  0.44542483  0.00353681     0.20200
H222        H  0.07259140  0.56263862  0.00479975     0.18600
H223        H  0.04273722  0.57683785  0.93934084     0.18500
H224        H  0.95769116  0.43054363  0.06879570     0.14400
C225        C  0.79763375  0.73561173  0.88260998     0.29800
C226        C  0.78937001  0.78685336  0.88139663    -0.36500
C227        C  0.73963644  0.80193624  0.88151932     0.15800
C228        C  0.70049330  0.76899087  0.88275158     0.21600
C229        C  0.70876950  0.71766680  0.88404737    -0.34600
C230        C  0.75859742  0.70253451  0.88386710     0.15700
O231        O  0.84100619  0.71344119  0.88010512    -0.26700
C232        C  0.82981189  0.66541700  0.87977854     0.05500
C233        C  0.77902040  0.65648938  0.88208662    -0.31500
O234        O  0.65704122  0.79115273  0.88008320    -0.23400
C235        C  0.66854929  0.83895559  0.87725472    -0.03400
C236        C  0.71942230  0.84770039  0.87802914    -0.17800
H237        H  0.81959644  0.81308658  0.87926665     0.20200
H238        H  0.67848208  0.69131440  0.88395315     0.18600
H239        H  0.75980127  0.62134775  0.88060983     0.18500
H240        H  0.73877991  0.88245713  0.87454995     0.14400
C241        C  0.99018395  0.15737238  0.28612391     0.29800
C242        C  0.00943705  0.20482238  0.29239430    -0.36500
C243        C  0.02505169  0.23240064  0.26582423     0.15800
C244        C  0.02158889  0.21451880  0.23532789     0.21600
C245        C  0.00302442  0.16726125  0.22914011    -0.34600
C246        C  0.98767356  0.13992536  0.25550887     0.15700
O247        O  0.97320856  0.12477883  0.30705587    -0.26700
C248        C  0.95999749  0.08625322  0.28929405     0.05500
C249        C  0.96820732  0.09391193  0.25718772    -0.31500
O250        O  0.03387828  0.24759543  0.21380455    -0.23400
C251        C  0.04596814  0.28730897  0.23053301    -0.03400
C252        C  0.04167409  0.28000124  0.26309175    -0.17800
H253        H  0.01134543  0.21950107  0.31615497     0.20200
H254        H  0.99968920  0.15317268  0.20528681     0.18600
H255        H  0.96148442  0.06863195  0.23782129     0.18500
H256        H  0.04619154  0.30698870  0.28174383     0.14400
C257        C  0.02376506  0.64119535  0.24433094     0.29800
C258        C  0.01247360  0.66447419  0.27280589    -0.36500
C259        C  0.98931801  0.71025575  0.27027316     0.15800
C260        C  0.97764424  0.73205561  0.24166554     0.21600
C261        C  0.98864240  0.70824187  0.21284075    -0.34600
C262        C  0.01241380  0.66201987  0.21537599     0.15700
O263        O  0.04573068  0.59833466  0.24184959    -0.26700
C264        C  0.04906317  0.59080162  0.21092950     0.05500
C265        C  0.02898208  0.62924118  0.19297187    -0.31500
O266        O  0.95995704  0.77729774  0.24529396    -0.23400
C267        C  0.96065124  0.78388028  0.27655985    -0.03400
C268        C  0.97820572  0.74325704  0.29313937    -0.17800
H269        H  0.02220557  0.64840429  0.29545599     0.20200
H270        H  0.98055510  0.72510670  0.19017294     0.18600
H271        H  0.02584175  0.63193765  0.16749994     0.18500
H272        H  0.98520943  0.74000056  0.31828731     0.14400
C273        C  0.13859221  0.97920549  0.26091447     0.29800
C274        C  0.16146786  0.99356331  0.23270629    -0.36500
C275        C  0.20866309  0.01406520  0.23563823     0.15800
C276        C  0.23197933  0.02056665  0.26438996     0.21600
C277        C  0.20866760  0.00641151  0.29289866    -0.34600
C278        C  0.16116770  0.98525703  0.28994094     0.15700
O279        O  0.09478179  0.95860911  0.26309668    -0.26700
C280        C  0.08857966  0.95084059  0.29387358     0.05500
C281        C  0.12866530  0.96671153  0.31200811    -0.31500
O282        O  0.27787848  0.03700595  0.26101028    -0.23400
C283        C  0.28347222  0.04077683  0.22975050    -0.03400
C284        C  0.24158927  0.02713093  0.21290896    -0.17800
H285        H  0.14407121  0.98795127  0.20992151     0.20200
H286        H  0.22678276  0.01030790  0.31558985     0.18600
H287        H  0.13273297  0.96571066  0.33747280     0.18500
H288        H  0.23727273  0.02412413  0.18751499     0.14400
C289        C  0.65637741  0.01786856  0.22091702     0.29800
C290        C  0.70309497  0.99666920  0.21518451    -0.36500
C291        C  0.73150107  0.98535330  0.24218958     0.15800
C292        C  0.71508687  0.99454345  0.27257206     0.21600
C293        C  0.66845688  0.01486550  0.27826607    -0.34600
C294        C  0.64028525  0.02595005  0.25148358     0.15700
O295        O  0.62311935  0.03146500  0.19953289    -0.26700
C296        C  0.58562936  0.04816764  0.21700752     0.05500
C297        C  0.59442422  0.04539031  0.24930561    -0.31500
O298        O  0.74854639  0.98456369  0.29426139    -0.23400
C299        C  0.78695779  0.96815554  0.27776446    -0.03400
C300        C  0.77848121  0.96745784  0.24523262    -0.17800
H301        H  0.71656439  0.99001730  0.19145407     0.20200
H302        H  0.65533538  0.02232149  0.30198396     0.18600
H303        H  0.56982980  0.05540657  0.26849455     0.18500
H304        H  0.80422342  0.95804446  0.22655515     0.14400
C305        C  0.70059197  0.74097173  0.38702414     0.29800
C306        C  0.71131723  0.79190969  0.38589976    -0.36500
C307        C  0.76167977  0.80504088  0.38722338     0.15800
C308        C  0.79896270  0.77036640  0.38946306     0.21600
C309        C  0.78814590  0.71949707  0.39137940    -0.34600
C310        C  0.73777890  0.70633777  0.39002374     0.15700
O311        O  0.65688178  0.72045526  0.38193650    -0.26700
C312        C  0.66590167  0.67197464  0.38191540     0.05500
C313        C  0.71561847  0.66102308  0.38714225    -0.31500
O314        O  0.84347706  0.79020633  0.38619904    -0.23400
C315        C  0.83477329  0.83833995  0.38221336    -0.03400
C316        C  0.78448472  0.84973563  0.38288509    -0.17800
H317        H  0.68259373  0.81922434  0.38229625     0.20200
H318        H  0.81714617  0.69192796  0.39193082     0.18600
H319        H  0.73345508  0.62524183  0.38603953     0.18500
H320        H  0.76718680  0.88506678  0.37807757     0.14400
C321        C  0.47874796  0.86330539  0.24146151     0.29800
C322        C  0.49389807  0.84073543  0.26951695    -0.36500
C323        C  0.51799259  0.79555473  0.26632657     0.15800
C324        C  0.52662311  0.77337388  0.23749531     0.21600
C325        C  0.51187666  0.79660289  0.20902792    -0.34600
C326        C  0.48750026  0.84245596  0.21223449     0.15700
O327        O  0.45586286  0.90580895  0.23965924    -0.26700
C328        C  0.44948057  0.91328846  0.20889862     0.05500
C329        C  0.46834723  0.87500707  0.19037501    -0.31500
O330        O  0.54496586  0.72821777  0.24080990    -0.23400
C331        C  0.54802562  0.72220206  0.27212158    -0.03400
C332        C  0.53222711  0.76316182  0.28894844    -0.17800
H333        H  0.48639744  0.85691773  0.29241907     0.20200
H334        H  0.51771840  0.77958045  0.18619416     0.18600
H335        H  0.46938304  0.87243480  0.16483717     0.18500
H336        H  0.52750517  0.76666329  0.31429312     0.14400
C337        C  0.49263241  0.26711916  0.26403736     0.29800
C338        C  0.51621485  0.29044498  0.28982665    -0.36500
C339        C  0.52541613  0.34159909  0.28652396     0.15800
C340        C  0.51159056  0.36759761  0.25981928     0.21600
C341        C  0.48825032  0.34446931  0.23422077    -0.34600
C342        C  0.47970451  0.29362374  0.23734984     0.15700
O343        O  0.48339227  0.21923893  0.26092729    -0.26700
C344        C  0.46466727  0.21532939  0.23181390     0.05500
C345        C  0.46156283  0.26047264  0.21614456    -0.31500
O346        O  0.52343593  0.41470543  0.26130288    -0.23400
C347        C  0.54560412  0.41964644  0.28921136    -0.03400
C348        C  0.54814467  0.37525222  0.30609091    -0.17800
H349        H  0.52758382  0.26997545  0.31062989     0.20200
H350        H  0.47834372  0.36465074  0.21298873     0.18600
H351        H  0.44991801  0.26742357  0.19202763     0.18500
H352        H  0.56376243  0.36890488  0.32932302     0.14400
C353        C  0.86594325  0.48192379  0.24789110     0.29800
C354        C  0.84283930  0.50137526  0.27468061    -0.36500
C355        C  0.79401700  0.51695597  0.27059727     0.15800
C356        C  0.76933581  0.51375242  0.24208611     0.21600
C357        C  0.79266476  0.49419788  0.21507896    -0.34600
C358        C  0.84179307  0.47823527  0.21921377     0.15700
O359        O  0.91181787  0.46632602  0.24660608    -0.26700
C360        C  0.91759688  0.45198571  0.21681817     0.05500
C361        C  0.87517699  0.45818291  0.19849752    -0.31500
O362        O  0.72262284  0.52771080  0.24443644    -0.23400
C363        C  0.71773221  0.53987149  0.27481350    -0.03400
C364        C  0.76105867  0.53416669  0.29209620    -0.17800
H365        H  0.86156980  0.50375087  0.29726733     0.20200
H366        H  0.77364868  0.49094656  0.19264559     0.18600
H367        H  0.87039121  0.45099301  0.17350880     0.18500
H368        H  0.76654914  0.53902462  0.31727339     0.14400
C369        C  0.34515764  0.53100570  0.28685809     0.29800
C370        C  0.30250065  0.50191139  0.29184903    -0.36500
C371        C  0.27345937  0.49250549  0.26488480     0.15800
C372        C  0.28565586  0.51085008  0.23533148     0.21600
C373        C  0.32787510  0.53967182  0.23037738    -0.34600
C374        C  0.35658603  0.54892741  0.25709363     0.15700
O375        O  0.37957536  0.54219546  0.30796471    -0.26700
C376        C  0.41291688  0.56757370  0.29117497     0.05500
C377        C  0.40016083  0.57308434  0.25956800    -0.31500
O378        O  0.25250692  0.50024056  0.21375300    -0.23400
C379        C  0.21851322  0.47434809  0.22936375    -0.03400
C380        C  0.22951262  0.46790990  0.26129724    -0.17800
H381        H  0.29284345  0.48743020  0.31495805     0.20200
H382        H  0.33761785  0.55401675  0.20723507     0.18600
H383        H  0.42161067  0.58984780  0.24066725     0.18500
H384        H  0.20693653  0.45067128  0.27944858     0.14400
C385        C  0.49813520  0.47099371  0.52511179     0.29800
C386        C  0.52214360  0.45508860  0.49739986    -0.36500
C387        C  0.51691319  0.48571698  0.47065917     0.15800
C388        C  0.48989556  0.52898660  0.47118700     0.21600
C389        C  0.46561832  0.54465724  0.49880232    -0.34600
C390        C  0.47098036  0.51416687  0.52553774     0.15700
O391        O  0.49822202  0.44825169  0.55283711    -0.26700
C392        C  0.47094448  0.47734206  0.57134293     0.05500
C393        C  0.45296563  0.51885972  0.55556080    -0.31500
O394        O  0.49204257  0.55332791  0.44408700    -0.23400
C395        C  0.52061138  0.52527515  0.42578595    -0.03400
C396        C  0.53700426  0.48257021  0.44105158    -0.17800
H397        H  0.54389781  0.42151649  0.49684080     0.20200
H398        H  0.44468025  0.57873332  0.49953272     0.18600
H399        H  0.42940082  0.54780046  0.56475765     0.18500
H400        H  0.56196079  0.45460055  0.43212045     0.14400
C401        C  0.15921637  0.52943597  0.78740737     0.29800
C402        C  0.20712206  0.51103444  0.79368841    -0.36500
C403        C  0.23485919  0.49579440  0.76710860     0.15800
C404        C  0.21665570  0.49895053  0.73664773     0.21600
C405        C  0.16916192  0.51686924  0.73046173    -0.34600
C406        C  0.14171177  0.53174228  0.75677451     0.15700
O407        O  0.12577290  0.54454573  0.80832908    -0.26700
C408        C  0.08671883  0.55636944  0.79048735     0.05500
C409        C  0.09494895  0.54917985  0.75839191    -0.31500
O410        O  0.24916937  0.48573521  0.71510155    -0.23400
C411        C  0.28899615  0.47325288  0.73168474    -0.03400
C412        C  0.28229577  0.47843078  0.76427403    -0.17800
H413        H  0.22173818  0.50882843  0.81748564     0.20200
H414        H  0.15467891  0.51942119  0.70663451     0.18600
H415        H  0.06926786  0.55450940  0.73900805     0.18500
H416        H  0.30932675  0.47312194  0.78287346     0.14400
C417        C  0.64624264  0.46401121  0.74032473     0.29800
C418        C  0.67247606  0.46644799  0.76864802    -0.36500
C419        C  0.71501103  0.49566283  0.76820349     0.15800
C420        C  0.73124283  0.52098793  0.74172706     0.21600
C421        C  0.70447856  0.51876638  0.71308723    -0.34600
C422        C  0.66143414  0.48904148  0.71346734     0.15700
O423        O  0.60436100  0.44037474  0.73647654    -0.26700
C424        C  0.59195677  0.44954754  0.70669430     0.05500
C425        C  0.62612288  0.47958755  0.69087717    -0.31500
O426        O  0.77399913  0.54383095  0.74673634    -0.23400
C427        C  0.78450259  0.53271108  0.77677448    -0.03400
C428        C  0.74886330  0.50321660  0.79117908    -0.17800
H429        H  0.66045744  0.44677717  0.78967221     0.20200
H430        H  0.71651335  0.53836934  0.69205853     0.18600
H431        H  0.62359178  0.49479658  0.66721380     0.18500
H432        H  0.74924243  0.48737921  0.81475421     0.14400
C433        C  0.51602184  0.22944370  0.74007531     0.29800
C434        C  0.55100619  0.19164046  0.73834687    -0.36500
C435        C  0.55229771  0.15922037  0.76405931     0.15800
C436        C  0.52135164  0.16331599  0.78994145     0.21600
C437        C  0.48628406  0.20176272  0.79178106    -0.34600
C438        C  0.48491820  0.23453245  0.76580457     0.15700
O439        O  0.50921352  0.26369373  0.71851348    -0.26700
C440        C  0.47329383  0.29160300  0.73025881     0.05500
C441        C  0.45645222  0.27539116  0.75972936    -0.31500
O442        O  0.52677189  0.12603283  0.81003997    -0.23400
C443        C  0.56165503  0.09827721  0.79660614    -0.03400
C444        C  0.57883654  0.11735316  0.76812181    -0.17800
H445        H  0.57508847  0.18734550  0.71804337     0.20200
H446        H  0.46127169  0.20527615  0.81167109     0.18600
H447        H  0.42862566  0.29201620  0.77473897     0.18500
H448        H  0.60470403  0.10076454  0.75169850     0.14400
C449        C  0.51765679  0.74133230  0.73776456     0.29800
C450        C  0.49675394  0.71824993  0.71101183    -0.36500
C451        C  0.48751173  0.66709738  0.71376231     0.15800
C452        C  0.49912909  0.64082231  0.74079730     0.21600
C453        C  0.52035503  0.66360479  0.76722498    -0.34600
C454        C  0.52853065  0.71454607  0.76472706     0.15700
O455        O  0.52515072  0.78930003  0.74166471    -0.26700
C456        C  0.54053021  0.79297733  0.77155303     0.05500
C457        C  0.54335617  0.74763386  0.78696745    -0.31500
O458        O  0.48550242  0.59425395  0.73924334    -0.23400
C459        C  0.46437905  0.59002480  0.71097639    -0.03400
C460        C  0.46468308  0.63417318  0.69379940    -0.17800
H461        H  0.48651014  0.73904734  0.69010173     0.20200
H462        H  0.52799802  0.64328951  0.78878740     0.18600
H463        H  0.55258303  0.74045618  0.81148080     0.18500
H464        H  0.44963037  0.64111360  0.67048366     0.14400
C465        C  0.02242430  0.98988474  0.53380120     0.29800
C466        C  0.03041984  0.95615030  0.50903187    -0.36500
C467        C  0.01045857  0.96925493  0.47941115     0.15800
C468        C  0.98437531  0.01246821  0.47450021     0.21600
C469        C  0.97650868  0.04611397  0.49919210    -0.34600
C470        C  0.99631989  0.03301822  0.52872954     0.15700
O471        O  0.03883881  0.98603418  0.56322097    -0.26700
C472        C  0.02274358  0.02720840  0.57712908     0.05500
C473        C  0.99602961  0.05760893  0.55674664    -0.31500
O474        O  0.96731941  0.01652624  0.44531644    -0.23400
C475        C  0.98279776  0.97545693  0.43116134    -0.03400
C476        C  0.00998027  0.94475396  0.45123863    -0.17800
H477        H  0.05071979  0.92209929  0.51258854     0.20200
H478        H  0.95607033  0.08008667  0.49566491     0.18600
H479        H  0.98026440  0.09358599  0.56160763     0.18500
H480        H  0.02533760  0.90868263  0.44613731     0.14400
C481        C  0.20141191  0.23702451  0.62058878     0.29800
C482        C  0.21111529  0.28809937  0.62053518    -0.36500
C483        C  0.26118303  0.30201768  0.62156686     0.15800
C484        C  0.29913171  0.26793593  0.62257425     0.21600
C485        C  0.28943669  0.21677502  0.62214757    -0.34600
C486        C  0.23929071  0.20282665  0.62110905     0.15700
O487        O  0.15741969  0.21625947  0.62343246    -0.26700
C488        C  0.16692445  0.16805181  0.62551707     0.05500
C489        C  0.21731216  0.15738920  0.62397706    -0.31500
O490        O  0.34285027  0.28900041  0.62651994    -0.23400
C491        C  0.33290946  0.33723083  0.62780991    -0.03400
C492        C  0.28264376  0.34751394  0.62475330    -0.17800
H493        H  0.18158017  0.31508740  0.62125516     0.20200
H494        H  0.31883309  0.18976743  0.62404269     0.18600
H495        H  0.23520949  0.12196828  0.62738723     0.18500
H496        H  0.26435707  0.38298208  0.62667052     0.14400
C497        C  0.36344094  0.99156091  0.75885280     0.29800
C498        C  0.33943461  0.01028383  0.73211152    -0.36500
C499        C  0.28966245  0.02262901  0.73612713     0.15800
C500        C  0.26496619  0.01736180  0.76456724     0.21600
C501        C  0.28920928  0.99854202  0.79151422    -0.34600
C502        C  0.33923568  0.98557458  0.78740768     0.15700
O503        O  0.40985276  0.97752361  0.75999557    -0.26700
C504        C  0.41588565  0.96177692  0.78954699     0.05500
C505        C  0.37317027  0.96567267  0.80786688    -0.31500
O506        O  0.21746133  0.02843562  0.76214667    -0.23400
C507        C  0.21210145  0.04066082  0.73177004    -0.03400
C508        C  0.25582355  0.03788941  0.71457385    -0.17800
H509        H  0.35808877  0.01405379  0.70953619     0.20200
H510        H  0.27014734  0.99329041  0.81382112     0.18600
H511        H  0.36823320  0.95627373  0.83258417     0.18500
H512        H  0.26120507  0.04360829  0.68942783     0.14400
C513        C  0.78203671  0.01196427  0.76729725     0.29800
C514        C  0.82171706  0.04444978  0.77093112    -0.36500
C515        C  0.85029112  0.05268963  0.74400983     0.15800
C516        C  0.84133429  0.03013760  0.71531129     0.21600
C517        C  0.80095180  0.99756006  0.71157842    -0.34600
C518        C  0.77176710  0.98947548  0.73873985     0.15700
O519        O  0.74918516  0.00184107  0.78915717    -0.26700
C520        C  0.71698029  0.97248747  0.77474927     0.05500
C521        C  0.72912089  0.96290262  0.74331735    -0.31500
O522        O  0.87630461  0.04017532  0.69426139    -0.23400
C523        C  0.90732058  0.06958748  0.71001296    -0.03400
C524        C  0.89243612  0.07900671  0.74079396    -0.17800
H525        H  0.82975513  0.06214831  0.79329858     0.20200
H526        H  0.79316385  0.97952050  0.68930307     0.18600
H527        H  0.70785728  0.94259091  0.72594409     0.18500
H528        H  0.91229443  0.09886842  0.75906513     0.14400
C529        C  0.02273432  0.27217372  0.76678215     0.29800
C530        C  0.00836976  0.29476160  0.79540947    -0.36500
C531        C  0.98833891  0.34268584  0.79272615     0.15800
C532        C  0.98348605  0.36613270  0.76383596     0.21600
C533        C  0.99804351  0.34400035  0.73558001    -0.34600
C534        C  0.01747602  0.29652275  0.73822544     0.15700
O535        O  0.03803718  0.22612794  0.76300991    -0.26700
C536        C  0.04231173  0.22154995  0.73170822     0.05500
C537        C  0.03016070  0.26421342  0.71523604    -0.31500
O538        O  0.96352156  0.40996930  0.76609894    -0.23400
C539        C  0.95505491  0.41555414  0.79679287    -0.03400
C540        C  0.96972191  0.37484399  0.81484886    -0.17800
H541        H  0.01122374  0.27582562  0.81793613     0.20200
H542        H  0.99324302  0.36216171  0.71291969     0.18600
H543        H  0.02769242  0.26945229  0.68987160     0.18500
H544        H  0.96756491  0.36998717  0.84024086     0.14400
C545        C  0.00755871  0.86908495  0.74890680     0.29800
C546        C  0.98772607  0.84594495  0.77576099    -0.36500
C547        C  0.97502065  0.79611617  0.77231929     0.15800
C548        C  0.98093553  0.77074678  0.74427911     0.21600
C549        C  0.00098553  0.79402920  0.71731036    -0.34600
C550        C  0.01433700  0.84399071  0.72085228     0.15700
O551        O  0.02207217  0.91536971  0.74718292    -0.26700
C552        C  0.03890973  0.92033582  0.71777063     0.05500
C553        C  0.03532193  0.87706260  0.70015131    -0.31500
O554        O  0.96959904  0.72342180  0.74715036    -0.23400
C555        C  0.95658570  0.71866068  0.77740795    -0.03400
C556        C  0.95911730  0.76270067  0.79415654    -0.17800
H557        H  0.98345940  0.86524630  0.79799708     0.20200
H558        H  0.00689758  0.77426693  0.69540804     0.18600
H559        H  0.04559274  0.87121832  0.67569286     0.18500
H560        H  0.95317576  0.76848840  0.81921366     0.14400
loop_ 
_geom_bond_atom_site_label_1 
_geom_bond_atom_site_label_2 
_geom_bond_distance 
_geom_bond_site_symmetry_2 
_ccdc_geom_bond_type 
O1           C16   1.256   1_545  A
O1           Al9   1.858       .  S
C2           O12   1.265       .  A
C2            O3   1.276       .  A
C2          C488   1.470       .  S
O3           Al5   1.944       .  S
O4            C6   1.250       .  A
O4           Al5   1.872       .  S
Al5          O13   1.904       .  S
Al5          O15   1.939   1_545  S
Al5          O14   1.789       .  S
C6           O19   1.252       .  A
C6          C507   1.464       .  S
O7           C17   1.255       .  A
O7           Al9   1.896       .  S
O8           C21   1.266       .  A
O8          Al18   1.914   1_655  S
Al9          O22   1.900   1_455  S
Al9          O19   1.896       .  S
Al9          O14   1.797       .  S
O10          C17   1.259       .  A
O10         Al18   1.907       .  S
O11          C20   1.250       .  A
O11         Al18   1.892       .  S
O12         Al18   1.878       .  S
O13          C20   1.250       .  A
O14         Al18   1.791       .  S
O15          C16   1.270       .  A
C16         C552   1.465       .  S
C17         C536   1.463       .  S
C20         C472   1.477       .  S
C21          O22   1.265       .  A
C21         C523   1.460       .  S
O23          C38   1.260       .  A
O23         Al31   1.872       .  S
C24          O34   1.272       .  A
C24          O25   1.280       .  A
C24         C491   1.474       .  S
O25         Al27   1.943       .  S
O26          C28   1.250       .  A
O26         Al27   1.882       .  S
Al27         O35   1.900       .  S
Al27         O37   1.940       .  S
Al27         O36   1.786       .  S
C28          O41   1.251       .  A
C28         C411   1.471       .  S
O29          C39   1.257       .  A
O29         Al31   1.914       .  S
O30          C43   1.271       .  A
O30         Al40   1.928       .  S
Al31         O44   1.900       .  S
Al31         O41   1.897       .  S
Al31         O36   1.795       .  S
O32          C39   1.253       .  A
O32         Al40   1.892       .  S
O33          C42   1.244       .  A
O33         Al40   1.886       .  S
O34         Al40   1.897       .  S
O35          C42   1.248       .  A
O36         Al40   1.791       .  S
O37          C38   1.271       .  A
C38         C459   1.471       .  S
C39         C440   1.464       .  S
C42         C392   1.477       .  S
C43          O44   1.266       .  A
C43         C424   1.461       .  S
O45          C60   1.263       .  A
O45         Al53   1.898       .  S
C46          O56   1.276       .  A
C46          O47   1.265       .  A
C46         C312   1.477       .  S
O47         Al49   1.887       .  S
O48          C50   1.261       .  A
O48         Al49   1.903       .  S
Al49         O57   1.899       .  S
Al49         O59   1.919       .  S
Al49         O58   1.790       .  S
C50          O63   1.259       .  A
C50         C331   1.467       .  S
O51          C61   1.252       .  A
O51         Al53   1.896       .  S
O52          C65   1.272       .  A
O52         Al62   1.952       .  S
Al53         O66   1.867       .  S
Al53         O63   1.908       .  S
Al53         O58   1.798       .  S
O54          C61   1.251       .  A
O54         Al62   1.877       .  S
O55          C64   1.251       .  A
O55         Al62   1.899       .  S
O56         Al62   1.948       .  S
O57          C64   1.251       .  A
O58         Al62   1.788       .  S
O59          C60   1.266       .  A
C60         C376   1.463       .  S
C61         C363   1.465       .  S
C64         C395   1.476       .  S
C65          O66   1.258       .  A
C65         C347   1.475       .  S
O67          C82   1.265       .  A
O67         Al75   1.896   1_455  S
C68          O78   1.279       .  A
C68          O69   1.273       .  A
C68         C315   1.476       .  S
O69         Al71   1.902       .  S
O70          C72   1.254       .  A
O70         Al71   1.893       .  S
Al71         O79   1.882       .  S
Al71         O81   1.925   1_655  S
Al71         O80   1.793       .  S
C72          O85   1.251       .  A
C72         C267   1.463       .  S
O73          C83   1.249       .  A
O73         Al75   1.879       .  S
O74          C87   1.269       .  A
O74         Al84   1.937   1_545  S
Al75         O88   1.866   1_565  S
Al75         O85   1.897       .  S
Al75         O80   1.796       .  S
O76          C83   1.252       .  A
O76         Al84   1.888       .  S
O77          C86   1.248       .  A
O77         Al84   1.904       .  S
O78         Al84   1.940       .  S
O79          C86   1.244       .  A
O80         Al84   1.790       .  S
O81          C82   1.271       .  A
C82         C280   1.464       .  S
C83         C299   1.465       .  S
C86         C475   1.477       .  S
C87          O88   1.259       .  A
C87         C248   1.471       .  S
O89         C104   1.266       .  A
O89         Al97   1.899       .  S
C90         O100   1.277       .  A
C90          O91   1.271       .  A
C90         C232   1.476       .  S
O91         Al93   1.898       .  S
O92          C94   1.255       .  A
O92         Al93   1.893       .  S
Al93        O101   1.885       .  S
Al93        O103   1.927       .  S
Al93        O102   1.794       .  S
C94         O107   1.255       .  A
C94         C427   1.466       .  S
O95         C105   1.250       .  A
O95         Al97   1.887       .  S
O96         C109   1.269       .  A
O96        Al106   1.944   1_455  S
Al97        O110   1.864   1_655  S
Al97        O107   1.907       .  S
Al97        O102   1.792       .  S
O98         C105   1.250       .  A
O98        Al106   1.875       .  S
O99         C108   1.248       .  A
O99        Al106   1.893       .  S
O100       Al106   1.941       .  S
O101        C108   1.246       .  A
O102       Al106   1.788       .  S
O103        C104   1.271       .  A
C104        C539   1.465       .  S
C105        C555   1.463       .  S
C108        C216   1.468       .  S
C109        O110   1.258       .  A
C109        C408   1.475       .  S
O111        C126   1.266       .  A
O111       Al119   1.910   1_545  S
C112        O122   1.276       .  A
C112        O113   1.269       .  A
C112        C235   1.475       .  S
O113       Al115   1.887       .  S
O114        C116   1.254       .  A
O114       Al115   1.887       .  S
Al115       O123   1.884       .  S
Al115       O125   1.919   1_565  S
Al115       O124   1.791       .  S
C116        O129   1.256       .  A
C116        C520   1.457       .  S
O117        C127   1.250       .  A
O117       Al119   1.892       .  S
O118        C131   1.270       .  A
O118       Al128   1.936       .  S
Al119       O132   1.861       .  S
Al119       O129   1.905       .  S
Al119       O124   1.798       .  S
O120        C127   1.252       .  A
O120       Al128   1.889       .  S
O121        C130   1.252       .  A
O121       Al128   1.912       .  S
O122       Al128   1.942       .  S
O123        C130   1.246       .  A
O124       Al128   1.789       .  S
O125        C126   1.268       .  A
C126        C443   1.464       .  S
C127        C456   1.470       .  S
C130        C200   1.478       .  S
C131        O132   1.258       .  A
C131        C504   1.465       .  S
O133        C148   1.257   1_455  A
O133       Al141   1.864       .  S
C134        O144   1.272       .  A
C134        O135   1.277       .  A
C134        C187   1.475       .  S
O135       Al137   1.935       .  S
O136        C138   1.251       .  A
O136       Al137   1.880       .  S
Al137       O145   1.896       .  S
Al137       O147   1.928   1_455  S
Al137       O146   1.789       .  S
C138        O151   1.251       .  A
C138        C251   1.465       .  S
O139        C149   1.254       .  A
O139       Al141   1.901       .  S
O140        C153   1.271       .  A
O140       Al150   1.929       .  S
Al141       O154   1.901       .  S
Al141       O151   1.887       .  S
Al141       O146   1.794       .  S
O142        C149   1.252       .  A
O142       Al150   1.888       .  S
O143        C152   1.245       .  A
O143       Al150   1.880       .  S
O144       Al150   1.903       .  S
O145        C152   1.248       .  A
O146       Al150   1.792       .  S
O147        C148   1.267       .  A
C148        C360   1.463       .  S
C149        C379   1.458       .  S
C152        C219   1.468       .  S
C153        O154   1.266       .  A
C153        C264   1.465       .  S
O155        C170   1.257       .  A
O155       Al163   1.855       .  S
C156        O166   1.270       .  A
C156        O157   1.276       .  A
C156        C184   1.475       .  S
O157       Al159   1.938       .  S
O158        C160   1.252       .  A
O158       Al159   1.888       .  S
Al159       O167   1.908       .  S
Al159       O169   1.940       .  S
Al159       O168   1.787       .  S
C160        O173   1.252       .  A
C160        C344   1.473       .  S
O161        C171   1.256       .  A
O161       Al163   1.899       .  S
O162        C175   1.270       .  A
O162       Al172   1.931   1_565  S
Al163       O176   1.904   1_545  S
Al163       O173   1.901       .  S
Al163       O168   1.795       .  S
O164        C171   1.258       .  A
O164       Al172   1.903       .  S
O165        C174   1.248       .  A
O165       Al172   1.892       .  S
O166       Al172   1.898       .  S
O167        C174   1.251       .  A
O168       Al172   1.793       .  S
O169        C170   1.269       .  A
C170        C296   1.466       .  S
C171        C283   1.462       .  S
C174        C203   1.478       .  S
C175        O176   1.265       .  A
C175        C328   1.468       .  S
C177        C182   1.380       .  A
C177        C178   1.406       .  A
C177        O183   1.321       .  A
C178        C179   1.405       .  A
C178        H189   1.082       .  S
C179        C188   1.364       .  A
C179        C180   1.380       .  A
C180        C181   1.405       .  A
C180        O186   1.321       .  A
C181        C182   1.405       .  A
C181        H190   1.082       .  S
C182        C185   1.364       .  A
O183        C184   1.333       .  A
C184        C185   1.392       .  A
C185        H191   1.083       .  S
O186        C187   1.332       .  A
C187        C188   1.393       .  A
C188        H192   1.083       .  S
C193        C198   1.379   1_545  A
C193        C194   1.408   1_556  A
C193        O199   1.320       .  A
C194        C195   1.406       .  A
C194        H205   1.082       .  S
C195        C204   1.368       .  A
C195        C196   1.380       .  A
C196        C197   1.406   1_545  A
C196        O202   1.320       .  A
C197        C198   1.404   1_554  A
C197        H206   1.082       .  S
C198        C201   1.367       .  A
O199        C200   1.334   1_545  A
C200        C201   1.392       .  A
C201        H207   1.082       .  S
O202        C203   1.332       .  A
C203        C204   1.394       .  A
C204        H208   1.082       .  S
C209        C214   1.380   1_655  A
C209        C210   1.403   1_556  A
C209        O215   1.318       .  A
C210        C211   1.402       .  A
C210        H221   1.082       .  S
C211        C220   1.363       .  A
C211        C212   1.380   1_655  A
C212        C213   1.404       .  A
C212        O218   1.317       .  A
C213        C214   1.402   1_554  A
C213        H222   1.082       .  S
C214        C217   1.363       .  A
O215        C216   1.331       .  A
C216        C217   1.391   1_655  A
C217        H223   1.082       .  S
O218        C219   1.331       .  A
C219        C220   1.391   1_455  A
C220        H224   1.082       .  S
C225        C230   1.380       .  A
C225        C226   1.404       .  A
C225        O231   1.321       .  A
C226        C227   1.404       .  A
C226        H237   1.082       .  S
C227        C236   1.361       .  A
C227        C228   1.380       .  A
C228        C229   1.406       .  A
C228        O234   1.323       .  A
C229        C230   1.407       .  A
C229        H238   1.082       .  S
C230        C233   1.365       .  A
O231        C232   1.331       .  A
C232        C233   1.394       .  A
C233        H239   1.083       .  S
O234        C235   1.332       .  A
C235        C236   1.393       .  A
C236        H240   1.083       .  S
C241        C246   1.380       .  A
C241        C242   1.408   1_655  A
C241        O247   1.326       .  A
C242        C243   1.409       .  A
C242        H253   1.082       .  S
C243        C252   1.365       .  A
C243        C244   1.381       .  A
C244        C245   1.396       .  A
C244        O250   1.314       .  A
C245        C246   1.397   1_455  A
C245        H254   1.083   1_455  S
C246        C249   1.350       .  A
O247        C248   1.333       .  A
C248        C249   1.389       .  A
C249        H255   1.083       .  S
O250        C251   1.327       .  A
C251        C252   1.394       .  A
C252        H256   1.082       .  S
C257        C262   1.380       .  A
C257        C258   1.394       .  A
C257        O263   1.307       .  A
C258        C259   1.391   1_455  A
C258        H269   1.083       .  S
C259        C268   1.351       .  A
C259        C260   1.380       .  A
C260        C261   1.411       .  A
C260        O266   1.323       .  A
C261        C262   1.410   1_655  A
C261        H270   1.082       .  S
C262        C265   1.374       .  A
O263        C264   1.326       .  A
C264        C265   1.395       .  A
C265        H271   1.082       .  S
O266        C267   1.334       .  A
C267        C268   1.385       .  A
C268        H272   1.083       .  S
C273        C278   1.380       .  A
C273        C274   1.395       .  A
C273        O279   1.308       .  A
C274        C275   1.393   1_565  A
C274        H285   1.083       .  S
C275        C284   1.353       .  A
C275        C276   1.380       .  A
C276        C277   1.410       .  A
C276        O282   1.322       .  A
C277        C278   1.408   1_545  A
C277        H286   1.082       .  S
C278        C281   1.372       .  A
O279        C280   1.327       .  A
C280        C281   1.394       .  A
C281        H287   1.082       .  S
O282        C283   1.333       .  A
C283        C284   1.386       .  A
C284        H288   1.083       .  S
C289        C294   1.381       .  A
C289        C290   1.407   1_545  A
C289        O295   1.326       .  A
C290        C291   1.409       .  A
C290        H301   1.082       .  S
C291        C300   1.364       .  A
C291        C292   1.381       .  A
C292        C293   1.395   1_565  A
C292        O298   1.315       .  A
C293        C294   1.396       .  A
C293        H302   1.082       .  S
C294        C297   1.349       .  A
O295        C296   1.333       .  A
C296        C297   1.387       .  A
C297        H303   1.083       .  S
O298        C299   1.327       .  A
C299        C300   1.394       .  A
C300        H304   1.082       .  S
C305        C310   1.380       .  A
C305        C306   1.406       .  A
C305        O311   1.320       .  A
C306        C307   1.405       .  A
C306        H317   1.082       .  S
C307        C316   1.365       .  A
C307        C308   1.380       .  A
C308        C309   1.406       .  A
C308        O314   1.321       .  A
C309        C310   1.405       .  A
C309        H318   1.082       .  S
C310        C313   1.367       .  A
O311        C312   1.333       .  A
C312        C313   1.392       .  A
C313        H319   1.082       .  S
O314        C315   1.332       .  A
C315        C316   1.393       .  A
C316        H320   1.083       .  S
C321        C326   1.380       .  A
C321        C322   1.394       .  A
C321        O327   1.308       .  A
C322        C323   1.392       .  A
C322        H333   1.083       .  S
C323        C332   1.351       .  A
C323        C324   1.380       .  A
C324        C325   1.413       .  A
C324        O330   1.325       .  A
C325        C326   1.411       .  A
C325        H334   1.082       .  S
C326        C329   1.376       .  A
O327        C328   1.326       .  A
C328        C329   1.396       .  A
C329        H335   1.082       .  S
O330        C331   1.335       .  A
C331        C332   1.386       .  A
C332        H336   1.083       .  S
C337        C342   1.380       .  A
C337        C338   1.412       .  A
C337        O343   1.324       .  A
C338        C339   1.410       .  A
C338        H349   1.082       .  S
C339        C348   1.375       .  A
C339        C340   1.380       .  A
C340        C341   1.400       .  A
C340        O346   1.313       .  A
C341        C342   1.398       .  A
C341        H350   1.083       .  S
C342        C345   1.360       .  A
O343        C344   1.335       .  A
C344        C345   1.389       .  A
C345        H351   1.083       .  S
O346        C347   1.330       .  A
C347        C348   1.395       .  A
C348        H352   1.082       .  S
C353        C358   1.380       .  A
C353        C354   1.397       .  A
C353        O359   1.310       .  A
C354        C355   1.395       .  A
C354        H365   1.083       .  S
C355        C364   1.355       .  A
C355        C356   1.380       .  A
C356        C357   1.408       .  A
C356        O362   1.321       .  A
C357        C358   1.406       .  A
C357        H366   1.082       .  S
C358        C361   1.370       .  A
O359        C360   1.328       .  A
C360        C361   1.393       .  A
C361        H367   1.082       .  S
O362        C363   1.333       .  A
C363        C364   1.388       .  A
C364        H368   1.083       .  S
C369        C374   1.381       .  A
C369        C370   1.407       .  A
C369        O375   1.323       .  A
C370        C371   1.407       .  A
C370        H381   1.082       .  S
C371        C380   1.366       .  A
C371        C372   1.381       .  A
C372        C373   1.393       .  A
C372        O378   1.310       .  A
C373        C374   1.393       .  A
C373        H382   1.083       .  S
C374        C377   1.347       .  A
O375        C376   1.332       .  A
C376        C377   1.387       .  A
C377        H383   1.083       .  S
O378        C379   1.326       .  A
C379        C380   1.393       .  A
C380        H384   1.082       .  S
C385        C390   1.380       .  A
C385        C386   1.407       .  A
C385        O391   1.321       .  A
C386        C387   1.406       .  A
C386        H397   1.082       .  S
C387        C396   1.366       .  A
C387        C388   1.380       .  A
C388        C389   1.405       .  A
C388        O394   1.320       .  A
C389        C390   1.404       .  A
C389        H398   1.082       .  S
C390        C393   1.365       .  A
O391        C392   1.333       .  A
C392        C393   1.392       .  A
C393        H399   1.082       .  S
O394        C395   1.332       .  A
C395        C396   1.393       .  A
C396        H400   1.082       .  S
C401        C406   1.380       .  A
C401        C402   1.411       .  A
C401        O407   1.329       .  A
C402        C403   1.412       .  A
C402        H413   1.082       .  S
C403        C412   1.370       .  A
C403        C404   1.381       .  A
C404        C405   1.396       .  A
C404        O410   1.315       .  A
C405        C406   1.396       .  A
C405        H414   1.083       .  S
C406        C409   1.350       .  A
O407        C408   1.335       .  A
C408        C409   1.389       .  A
C409        H415   1.083       .  S
O410        C411   1.327       .  A
C411        C412   1.396       .  A
C412        H416   1.082       .  S
C417        C422   1.380       .  A
C417        C418   1.393       .  A
C417        O423   1.307       .  A
C418        C419   1.391       .  A
C418        H429   1.083       .  S
C419        C428   1.349       .  A
C419        C420   1.380       .  A
C420        C421   1.411       .  A
C420        O426   1.324       .  A
C421        C422   1.410       .  A
C421        H430   1.082       .  S
C422        C425   1.374       .  A
O423        C424   1.325       .  A
C424        C425   1.395       .  A
C425        H431   1.082       .  S
O426        C427   1.334       .  A
C427        C428   1.386       .  A
C428        H432   1.083       .  S
C433        C438   1.380       .  A
C433        C434   1.395       .  A
C433        O439   1.310       .  A
C434        C435   1.394       .  A
C434        H445   1.083       .  S
C435        C444   1.351       .  A
C435        C436   1.380       .  A
C436        C437   1.410       .  A
C436        O442   1.324       .  A
C437        C438   1.409       .  A
C437        H446   1.082       .  S
C438        C441   1.370       .  A
O439        C440   1.327       .  A
C440        C441   1.394       .  A
C441        H447   1.082       .  S
O442        C443   1.333       .  A
C443        C444   1.387       .  A
C444        H448   1.083       .  S
C449        C454   1.380       .  A
C449        C450   1.410       .  A
C449        O455   1.322       .  A
C450        C451   1.408       .  A
C450        H461   1.082       .  S
C451        C460   1.373       .  A
C451        C452   1.380       .  A
C452        C453   1.399       .  A
C452        O458   1.312       .  A
C453        C454   1.397       .  A
C453        H462   1.082       .  S
C454        C457   1.359       .  A
O455        C456   1.334       .  A
C456        C457   1.388       .  A
C457        H463   1.083       .  S
O458        C459   1.329       .  A
C459        C460   1.394       .  A
C460        H464   1.082       .  S
C465        C470   1.380   1_465  A
C465        C466   1.407       .  A
C465        O471   1.324       .  A
C466        C467   1.408       .  A
C466        H477   1.082       .  S
C467        C476   1.364       .  A
C467        C468   1.380   1_465  A
C468        C469   1.403       .  A
C468        O474   1.321       .  A
C469        C470   1.403       .  A
C469        H478   1.082       .  S
C470        C473   1.360       .  A
O471        C472   1.334   1_565  A
C472        C473   1.391   1_455  A
C473        H479   1.083       .  S
O474        C475   1.331   1_545  A
C475        C476   1.395   1_655  A
C476        H480   1.083       .  S
C481        C486   1.380       .  A
C481        C482   1.404       .  A
C481        O487   1.317       .  A
C482        C483   1.402       .  A
C482        H493   1.082       .  S
C483        C492   1.364       .  A
C483        C484   1.380       .  A
C484        C485   1.406       .  A
C484        O490   1.319       .  A
C485        C486   1.404       .  A
C485        H494   1.082       .  S
C486        C489   1.367       .  A
O487        C488   1.331       .  A
C488        C489   1.392       .  A
C489        H495   1.083       .  S
O490        C491   1.333       .  A
C491        C492   1.391       .  A
C492        H496   1.082       .  S
C497        C502   1.380       .  A
C497        C498   1.397   1_565  A
C497        O503   1.310       .  A
C498        C499   1.395       .  A
C498        H509   1.083       .  S
C499        C508   1.355       .  A
C499        C500   1.380       .  A
C500        C501   1.408   1_545  A
C500        O506   1.321       .  A
C501        C502   1.406       .  A
C501        H510   1.082       .  S
C502        C505   1.370       .  A
O503        C504   1.328       .  A
C504        C505   1.392       .  A
C505        H511   1.082       .  S
O506        C507   1.333       .  A
C507        C508   1.387       .  A
C508        H512   1.083       .  S
C513        C518   1.381   1_545  A
C513        C514   1.391       .  A
C513        O519   1.307       .  A
C514        C515   1.391       .  A
C514        H525   1.083       .  S
C515        C524   1.346       .  A
C515        C516   1.380       .  A
C516        C517   1.408   1_545  A
C516        O522   1.323       .  A
C517        C518   1.407       .  A
C517        H526   1.082       .  S
C518        C521   1.368       .  A
O519        C520   1.325   1_545  A
C520        C521   1.393       .  A
C521        H527   1.082       .  S
O522        C523   1.333       .  A
C523        C524   1.386       .  A
C524        H528   1.083       .  S
C529        C534   1.380       .  A
C529        C530   1.411       .  A
C529        O535   1.322       .  A
C530        C531   1.409   1_455  A
C530        H541   1.082       .  S
C531        C540   1.374       .  A
C531        C532   1.380       .  A
C532        C533   1.394       .  A
C532        O538   1.306       .  A
C533        C534   1.391   1_655  A
C533        H542   1.083       .  S
C534        C537   1.353       .  A
O535        C536   1.334       .  A
C536        C537   1.385       .  A
C537        H543   1.083       .  S
O538        C539   1.326       .  A
C539        C540   1.395       .  A
C540        H544   1.082       .  S
C545        C550   1.380       .  A
C545        C546   1.399   1_455  A
C545        O551   1.311       .  A
C546        C547   1.396       .  A
C546        H557   1.083       .  S
C547        C556   1.357       .  A
C547        C548   1.380       .  A
C548        C549   1.407   1_655  A
C548        O554   1.319       .  A
C549        C550   1.405       .  A
C549        H558   1.082       .  S
C550        C553   1.369       .  A
O551        C552   1.329       .  A
C552        C553   1.392       .  A
C553        H559   1.082       .  S
O554        C555   1.331       .  A
C555        C556   1.388       .  A
C556        H560   1.083       .  S
