geometry optimzed in LAMMPS
_audit_creation_date              2020-12-01 
_audit_creation_method            'lammps2cif' 
_symmetry_space_group_name_H-M    'P1' 
_symmetry_Int_Tables_number       1 
_symmetry_cell_setting            triclinic 
loop_ 
_symmetry_equiv_pos_as_xyz 
  x,y,z 
_cell_length_a                    29.00495381 
_cell_length_b                    29.253127896922205 
_cell_length_c                    27.98976002783861 
_cell_angle_alpha                 89.81609947698816 
_cell_angle_beta                  90.22568969339382 
_cell_angle_gamma                 89.31097718660112 
loop_ 
_atom_site_label 
_atom_site_type_symbol 
_atom_site_fract_x 
_atom_site_fract_y 
_atom_site_fract_z 
_atom_site_charge 
Zr1        Zr  0.94085853  0.84089607  0.01437210     2.17500
O2          O  0.87602886  0.88296206  0.97891261    -0.52100
O3          O  0.94511346  0.90692840  0.06913515    -0.75300
O4          O  0.86263915  0.81098048  0.03788017    -0.82100
O5          O  0.03635994  0.89253269  0.93336170    -0.83800
O6          O  0.87269908  0.74321774  0.07721654    -0.79500
O7          O  0.95950360  0.89762278  0.94956827    -0.91100
O8          O  0.01190763  0.90048911  0.11052886    -0.77100
O9          O  0.96038518  0.80522487  0.08949779    -0.86600
O10         O  0.02053110  0.85572361  0.02898321    -0.86200
O11         O  0.93129148  0.75930444  0.00385053    -0.73000
O12         O  0.98459317  0.80943821  0.94875518    -0.85100
Zr13       Zr  0.07233928  0.70926832  0.02805988     2.26400
Zr14       Zr  0.95314852  0.72380560  0.07875165     2.06300
Zr15       Zr  0.06452858  0.82273486  0.96611660     2.10000
Zr16       Zr  0.03967050  0.82180270  0.10384256     1.78800
O17         O  0.07685525  0.82545633  0.88017720    -0.93900
O18         O  0.00537514  0.82131253  0.18325185    -0.41700
O19         O  0.08529010  0.78896546  0.04083363    -0.78400
O20         O  0.03171080  0.74006226  0.09585804    -0.97100
O21         O  0.99358799  0.69262334  0.01257193    -0.90400
O22         O  0.05276190  0.74382661  0.95385701    -0.93200
C23         C  0.97711766  0.92402420  0.09550666     1.00500
C24         C  0.99684534  0.91150641  0.92868091     1.13500
C25         C  0.84712686  0.77480078  0.05946026     1.04300
O26         O  0.95990273  0.73251716  0.16492997    -0.95400
O27         O  0.97766092  0.64278289  0.08379533    -0.91100
O28         O  0.05413222  0.63790309  0.06766153    -0.84300
C29         C  0.01600181  0.62030769  0.08090121     1.10900
O30         O  0.90681870  0.75080190  0.89126591    -0.97300
Zr31       Zr  0.97392565  0.72901914  0.93909352     1.88900
O32         O  0.07570921  0.65327008  0.96476244    -0.74000
O33         O  0.89183018  0.67304030  0.10482412    -0.53300
O34         O  0.91471450  0.67133585  0.93029110    -0.97900
O35         O  0.00024458  0.74617178  0.85838987    -0.55100
O36         O  0.01025627  0.65668723  0.92074371    -0.74500
C37         C  0.04902622  0.63830396  0.93187375     0.97800
O38         O  0.13764337  0.68092323  0.07512344    -0.63300
O39         O  0.12168062  0.87978314  0.98709293    -0.58100
O40         O  0.14674793  0.72650581  0.99254442    -0.94800
O41         O  0.13902681  0.78986792  0.94656021    -0.93200
O42         O  0.10891867  0.86803448  0.10904855    -0.93600
O43         O  0.09803586  0.80107565  0.16328848    -0.92400
C44         C  0.16222900  0.75532914  0.96189797     1.16700
H45         H  0.02663801  0.88803704  0.02786822     0.32600
H46         H  0.04152276  0.72431972  0.12460083     0.43500
H47         H  0.07188792  0.73282724  0.92809817     0.37000
H48         H  0.90048612  0.75143899  0.99438512     0.33500
H49         H  0.02546335  0.84099760  0.20287879     0.25300
H50         H  0.90404340  0.65671075  0.13331670     0.31200
H51         H  0.90698781  0.66249208  0.96346409     0.37100
H52         H  0.09835365  0.89984589  0.11473609     0.31600
H53         H  0.10459383  0.90380430  0.00477694     0.30500
H54         H  0.10164088  0.84802706  0.87567727     0.32100
H55         H  0.97917379  0.72938724  0.83700176     0.31100
H56         H  0.09783023  0.76729410  0.16519758     0.35100
H57         H  0.12535736  0.67526726  0.10753764     0.27800
H58         H  0.85668457  0.89325428  0.00600222     0.32100
H59         H  0.89879811  0.78209214  0.90209804     0.34900
H60         H  0.14139182  0.86472251  0.01158199     0.27500
H61         H  0.14475413  0.65016396  0.06217634     0.40400
H62         H  0.93134186  0.74904160  0.17425270     0.30500
H63         H  0.97635081  0.83919477  0.17980597     0.38100
H64         H  0.03028284  0.73010786  0.85506394     0.29900
H65         H  0.88928189  0.64933880  0.07977418     0.30000
H66         H  0.85740080  0.85995700  0.96190015     0.30200
Zr67       Zr  0.57057708  0.63692645  0.01721546     2.17500
O68         O  0.63699641  0.58959670  0.99476553    -0.52100
O69         O  0.55592249  0.57254327  0.07201306    -0.75300
O70         O  0.64779906  0.66688987  0.04101809    -0.82100
O71         O  0.48243012  0.58391499  0.93245267    -0.83800
O72         O  0.63697287  0.72794756  0.08978548    -0.79500
O73         O  0.55692298  0.57567741  0.95726136    -0.91100
O74         O  0.49255088  0.58811165  0.11639334    -0.77100
O75         O  0.55018441  0.67952880  0.08754479    -0.86600
O76         O  0.48972572  0.62650109  0.02828946    -0.86200
O77         O  0.58454189  0.71700681  0.00054669    -0.73000
O78         O  0.53265278  0.66484730  0.94597211    -0.85100
Zr79       Zr  0.44647004  0.77453263  0.01117007     2.26400
Zr80       Zr  0.56212974  0.75974204  0.07059790     2.06300
Zr81       Zr  0.45149653  0.65578036  0.95915060     2.10000
Zr82       Zr  0.46997423  0.66730995  0.09888230     1.78800
O83         O  0.43807051  0.64504718  0.87390449    -0.93900
O84         O  0.50117342  0.67056078  0.17981802    -0.41700
O85         O  0.42988669  0.69638314  0.02950991    -0.78400
O86         O  0.48250935  0.74726040  0.08353964    -0.97100
O87         O  0.52611048  0.78682972  0.99937912    -0.90400
O88         O  0.46702623  0.73327827  0.94140682    -0.93200
C89         C  0.52409099  0.56046961  0.10140604     1.00500
C90         C  0.52073996  0.56192598  0.93447048     1.13500
C91         C  0.66302857  0.70052184  0.06639414     1.04300
O92         O  0.56277522  0.76682780  0.15734093    -0.95400
O93         O  0.53291740  0.83906184  0.08459628    -0.91100
O94         O  0.46499610  0.84817137  0.04535206    -0.84300
C95         C  0.49790975  0.86388376  0.07099354     1.10900
O96         O  0.61325759  0.71976668  0.88336806    -0.97300
Zr97       Zr  0.54709356  0.74387433  0.93060457     1.88900
O98         O  0.44787010  0.82692863  0.94356503    -0.74000
O99         O  0.62444846  0.81340454  0.05696021    -0.53300
O100        O  0.61070969  0.79731585  0.92638639    -0.97900
O101        O  0.52655624  0.71895208  0.85030558    -0.55100
O102        O  0.51328127  0.81399110  0.90117361    -0.74500
C103        C  0.47571274  0.83582971  0.90921222     0.97800
O104        O  0.38082732  0.80046136  0.05836226    -0.63300
O105        O  0.39356081  0.60020317  0.98191905    -0.58100
O106        O  0.37309611  0.76005127  0.97343837    -0.94800
O107        O  0.37685512  0.68989903  0.93964043    -0.93200
O108        O  0.39444309  0.63225159  0.10373014    -0.93600
O109        O  0.41798018  0.70036523  0.15798904    -0.92400
C110        C  0.35540103  0.72724433  0.94958316     1.16700
H111        H  0.48139842  0.59471894  0.02975508     0.32600
H112        H  0.47210950  0.76529586  0.11036014     0.43500
H113        H  0.44933543  0.74332613  0.91395714     0.37000
H114        H  0.61611396  0.72340781  0.99298211     0.33500
H115        H  0.48424823  0.64687781  0.19776517     0.25300
H116        H  0.64182369  0.81488914  0.08743973     0.31200
H117        H  0.60453127  0.81963996  0.95217656     0.37100
H118        H  0.39376676  0.61738779  0.13552383     0.31600
H119        H  0.40777262  0.56971029  0.97685003     0.30500
H120        H  0.42372712  0.67395869  0.86244072     0.32100
H121        H  0.53105228  0.68535612  0.85064214     0.31100
H122        H  0.40003526  0.72396156  0.14029618     0.35100
H123        H  0.36037205  0.77369670  0.06092882     0.27800
H124        H  0.65503707  0.58372508  0.02432558     0.32100
H125        H  0.61764132  0.68698829  0.89133373     0.34900
H126        H  0.39096309  0.60290933  0.01699706     0.27500
H127        H  0.39353507  0.80354358  0.09103101     0.40400
H128        H  0.56954905  0.79939829  0.16341732     0.30500
H129        H  0.53294067  0.65809537  0.17740147     0.38100
H130        H  0.49277161  0.72326559  0.84755353     0.29900
H131        H  0.64572805  0.79831748  0.03418382     0.30000
H132        H  0.65674217  0.60892336  0.97439112     0.30200
Zr133      Zr  0.16009131  0.04081685  0.69925906     2.17500
O134        O  0.11112498  0.10370963  0.72687865    -0.52100
O135        O  0.09546980  0.03469158  0.64071093    -0.75300
O136        O  0.19167618  0.11878028  0.68091276    -0.82100
O137        O  0.10629828  0.94985531  0.78108443    -0.83800
O138        O  0.26089291  0.10968213  0.64350835    -0.79500
O139        O  0.10297684  0.02596620  0.76410067    -0.91100
O140        O  0.10180814  0.96712518  0.60234449    -0.77100
O141        O  0.19744536  0.02107947  0.62539655    -0.86600
O142        O  0.14553358  0.96165605  0.68664474    -0.86200
O143        O  0.24224167  0.04992903  0.71205445    -0.73000
O144        O  0.19171393  0.99947908  0.76712918    -0.85100
Zr145      Zr  0.29392450  0.91168377  0.69067850     2.26400
Zr146      Zr  0.27957422  0.02928008  0.63793434     2.06300
Zr147      Zr  0.17823179  0.92012233  0.75200929     2.10000
Zr148      Zr  0.18122265  0.94201416  0.61298789     1.78800
O149        O  0.16689143  0.91078402  0.83753105    -0.93900
O150        O  0.18102776  0.97590815  0.53328296    -0.41700
O151        O  0.21326339  0.89828681  0.67826936    -0.78400
O152        O  0.26327346  0.95126110  0.62202831    -0.97100
O153        O  0.31050864  0.98969551  0.70516959    -0.90400
O154        O  0.25820746  0.93165298  0.76408887    -0.93200
C155        C  0.07857417  0.00285449  0.61410241     1.00500
C156        C  0.08766591  0.98948454  0.78483630     1.13500
C157        C  0.22906037  0.13470564  0.66183373     1.04300
O158        O  0.26774279  0.02878898  0.55180880    -0.95400
O159        O  0.35975876  0.99981613  0.62539642    -0.91100
O160        O  0.36574585  0.92569970  0.64921406    -0.84300
C161        C  0.38270435  0.96189665  0.63066380     1.10900
O162        O  0.24739943  0.07172357  0.82987832    -0.97300
Zr163      Zr  0.27307784  0.00958109  0.77795642     1.88900
O164        O  0.35338659  0.91181737  0.75206630    -0.74000
O165        O  0.33426068  0.08965775  0.62006008    -0.53300
O166        O  0.32633428  0.07347311  0.78021097    -0.97900
O167        O  0.26397939  0.97840596  0.85856114    -0.55100
O168        O  0.34847370  0.97787990  0.79346217    -0.74500
C169        C  0.36848889  0.94011657  0.78329946     0.97800
O170        O  0.31735473  0.84695854  0.64124326    -0.63300
O171        O  0.12457584  0.85994012  0.73109706    -0.58100
O172        O  0.27800612  0.83982827  0.72999201    -0.94800
O173        O  0.21538216  0.84920047  0.77719625    -0.93200
O174        O  0.13320618  0.87449856  0.60670294    -0.93600
O175        O  0.20821336  0.88645786  0.55438415    -0.92400
C176        C  0.24983429  0.82570247  0.76190374     1.16700
H177        H  0.11290685  0.95558622  0.68680918     0.32600
H178        H  0.27912240  0.94136350  0.59349987     0.43500
H179        H  0.27010325  0.91331814  0.79017453     0.37000
H180        H  0.25020525  0.07990648  0.72297831     0.33500
H181        H  0.16264403  0.95493722  0.51331854     0.25300
H182        H  0.34953866  0.08059244  0.58991436     0.31200
H183        H  0.34615708  0.06790522  0.80855612     0.37100
H184        H  0.14994158  0.85043358  0.62497636     0.31600
H185        H  0.10329119  0.85826730  0.75861805     0.30500
H186        H  0.17757425  0.93977627  0.85169305     0.32100
H187        H  0.27815288  0.00073400  0.88041858     0.31100
H188        H  0.22918045  0.86581483  0.57255956     0.35100
H189        H  0.28928828  0.82823807  0.63807643     0.27800
H190        H  0.10387964  0.12226939  0.69811374     0.32100
H191        H  0.27218987  0.07626361  0.85376210     0.34900
H192        H  0.10549384  0.87292815  0.70490759     0.27500
H193        H  0.32168145  0.85988062  0.60884817     0.40400
H194        H  0.25983592  0.06090988  0.54368499     0.30500
H195        H  0.16155110  0.00380133  0.53591945     0.38100
H196        H  0.28487169  0.95144840  0.86048862     0.29900
H197        H  0.35856732  0.08703314  0.64492537     0.30000
H198        H  0.13108386  0.12316654  0.74686975     0.30200
Zr199      Zr  0.36065706  0.41403335  0.72037882     2.17500
O200        O  0.40866801  0.34975226  0.74734650    -0.52100
O201        O  0.42835658  0.42435984  0.66750808    -0.75300
O202        O  0.33131977  0.33638244  0.69707959    -0.82100
O203        O  0.41132306  0.50452663  0.80377442    -0.83800
O204        O  0.26319508  0.34467931  0.65690770    -0.79500
O205        O  0.41689174  0.42873506  0.78612676    -0.91100
O206        O  0.41473269  0.48392740  0.61701699    -0.77100
O207        O  0.32061562  0.43057724  0.64693538    -0.86600
O208        O  0.37385630  0.49295736  0.70313976    -0.86200
O209        O  0.27902618  0.40337082  0.73523226    -0.73000
O210        O  0.33067591  0.45754836  0.78697946    -0.85100
Zr211      Zr  0.22516717  0.54141844  0.71112723     2.26400
Zr212      Zr  0.23918397  0.42297095  0.66183497     2.06300
Zr213      Zr  0.34343737  0.53639780  0.76739580     2.10000
Zr214      Zr  0.33510189  0.50876112  0.62956590     1.78800
O215        O  0.35824998  0.55967372  0.84945196    -0.93900
O216        O  0.33267892  0.46629141  0.55480785    -0.41700
O217        O  0.30513382  0.55475393  0.69403346    -0.78400
O218        O  0.25353921  0.50057615  0.64265396    -0.97100
O219        O  0.20975552  0.46354616  0.72884565    -0.90400
O220        O  0.26463432  0.52421245  0.78390563    -0.93200
C221        C  0.44163713  0.45348472  0.63571633     1.00500
C222        C  0.43059373  0.46524281  0.80779805     1.13500
C223        C  0.29566582  0.32019972  0.67477159     1.04300
O224        O  0.24233243  0.42888636  0.57508272    -0.95400
O225        O  0.15776072  0.44708338  0.65264166    -0.91100
O226        O  0.14910120  0.51927646  0.68099310    -0.84300
C227        C  0.13300553  0.48290398  0.66162067     1.10900
O228        O  0.27376545  0.38111352  0.84967275    -0.97300
Zr229      Zr  0.25001859  0.44640613  0.80088073     1.88900
O230        O  0.17566348  0.55156873  0.77888767    -0.74000
O231        O  0.18697430  0.35890751  0.65138377    -0.53300
O232        O  0.19267808  0.38683212  0.80949167    -0.97900
O233        O  0.26997083  0.46826581  0.88225741    -0.55100
O234        O  0.18069349  0.48818292  0.82513944    -0.74500
C235        C  0.16267081  0.52717246  0.81416465     0.97800
O236        O  0.19173119  0.59981638  0.65879038    -0.63300
O237        O  0.40168988  0.58849850  0.73784882    -0.58100
O238        O  0.24356466  0.61691868  0.74131871    -0.94800
O239        O  0.31008074  0.61116744  0.78399421    -0.93200
O240        O  0.37765322  0.57778922  0.61094511    -0.93600
O241        O  0.30112049  0.55826495  0.56836743    -0.92400
C242        C  0.27489644  0.63370686  0.76843918     1.16700
H243        H  0.40619709  0.50016444  0.70257948     0.32600
H244        H  0.23614827  0.50974410  0.61465532     0.43500
H245        H  0.25533315  0.54373221  0.80998193     0.37000
H246        H  0.27258855  0.37236063  0.74436755     0.33500
H247        H  0.34937362  0.48562079  0.53170378     0.25300
H248        H  0.16422050  0.36157629  0.67753846     0.31200
H249        H  0.19263290  0.37076393  0.77840497     0.37100
H250        H  0.39225042  0.57159811  0.57965309     0.31600
H251        H  0.43162291  0.57298715  0.74410175     0.30500
H252        H  0.32811233  0.55718564  0.86560691     0.32100
H253        H  0.30350167  0.46212820  0.88500630     0.31100
H254        H  0.28416392  0.58218118  0.58638017     0.35100
H255        H  0.17191895  0.61881992  0.67977501     0.27800
H256        H  0.41747584  0.33277818  0.71813076     0.32100
H257        H  0.30505438  0.37307988  0.83809986     0.34900
H258        H  0.39817974  0.58813024  0.70269386     0.27500
H259        H  0.21772300  0.61982274  0.65012767     0.40400
H260        H  0.22997911  0.39954087  0.56348727     0.30500
H261        H  0.35328784  0.43942781  0.55974918     0.38100
H262        H  0.26724669  0.50200093  0.88281420     0.29900
H263        H  0.16928494  0.36539647  0.62172765     0.30000
H264        H  0.38808154  0.32911588  0.76521102     0.30200
Zr265      Zr  0.85977989  0.53935793  0.51517328     2.17500
O266        O  0.91470546  0.60095158  0.50375129    -0.52100
O267        O  0.92627221  0.52296976  0.57056370    -0.75300
O268        O  0.82804699  0.61705389  0.53644370    -0.82100
O269        O  0.90869041  0.45849860  0.42086139    -0.83800
O270        O  0.76044932  0.61015047  0.57673605    -0.79500
O271        O  0.90881377  0.53333886  0.44299044    -0.91100
O272        O  0.91170358  0.46208056  0.61849730    -0.77100
O273        O  0.81856581  0.51895222  0.58599808    -0.86600
O274        O  0.87356391  0.45925038  0.52632274    -0.86200
O275        O  0.77863859  0.55294651  0.49789934    -0.73000
O276        O  0.83011983  0.50072884  0.44511510    -0.85100
Zr277      Zr  0.72554013  0.41510638  0.51447504     2.26400
Zr278      Zr  0.73750431  0.53171988  0.56888848     2.06300
Zr279      Zr  0.84379038  0.42072154  0.45804749     2.10000
Zr280      Zr  0.83408122  0.43923435  0.59776629     1.78800
O281        O  0.85998102  0.39850938  0.37600473    -0.93900
O282        O  0.82934677  0.46897281  0.67883312    -0.41700
O283        O  0.80536343  0.39832280  0.52967598    -0.78400
O284        O  0.75318602  0.45288528  0.58464604    -0.97100
O285        O  0.70915100  0.49347400  0.50033984    -0.90400
O286        O  0.76432807  0.43534581  0.44277759    -0.93200
C287        C  0.93845503  0.49318786  0.60286580     1.00500
C288        C  0.92360391  0.49954564  0.41742803     1.13500
C289        C  0.79187491  0.63424663  0.55736468     1.04300
O290        O  0.73063086  0.54906412  0.65357241    -0.95400
O291        O  0.66245466  0.49982387  0.59302086    -0.91100
O292        O  0.65309731  0.43244746  0.55492792    -0.84300
C293        C  0.63796560  0.46479996  0.58184558     1.10900
O294        O  0.77774679  0.57679253  0.38118601    -0.97300
Zr295      Zr  0.74954902  0.51399354  0.42988058     1.88900
O296        O  0.66777871  0.41676336  0.45217318    -0.74000
O297        O  0.67766083  0.58526283  0.54196116    -0.53300
O298        O  0.69689266  0.57934426  0.42442456    -0.97900
O299        O  0.76513773  0.49189834  0.34748581    -0.55100
O300        O  0.67645279  0.48008933  0.40650267    -0.74500
C301        C  0.65478276  0.44382163  0.41845606     0.97800
O302        O  0.70336914  0.34937236  0.56247936    -0.63300
O303        O  0.90235457  0.36697759  0.48677160    -0.58100
O304        O  0.74003250  0.34382970  0.47358555    -0.94800
O305        O  0.80687790  0.34966865  0.43293998    -0.93200
O306        O  0.88091143  0.36969951  0.60354673    -0.93600
O307        O  0.80155314  0.38251199  0.65148094    -0.92400
C308        C  0.77024030  0.32798824  0.44454999     1.16700
H309        H  0.90563713  0.45152566  0.52785659     0.32600
H310        H  0.73609533  0.44304483  0.61231229     0.43500
H311        H  0.75344502  0.41787166  0.41588772     0.37000
H312        H  0.77181602  0.58405312  0.48879530     0.33500
H313        H  0.85170687  0.45021165  0.69747030     0.25300
H314        H  0.65687555  0.56681358  0.52179898     0.31200
H315        H  0.67880079  0.57409985  0.39492347     0.37100
H316        H  0.89485346  0.37057586  0.63589258     0.31600
H317        H  0.88475523  0.34069039  0.49911403     0.30500
H318        H  0.84408195  0.42204292  0.35623154     0.32100
H319        H  0.74282773  0.50990003  0.32801783     0.31100
H320        H  0.78799199  0.35934998  0.63007316     0.35100
H321        H  0.72980235  0.32769135  0.56098673     0.27800
H322        H  0.91684290  0.61673302  0.53491418     0.32100
H323        H  0.80894032  0.58287350  0.39401022     0.34900
H324        H  0.91732423  0.35537028  0.45741626     0.27500
H325        H  0.70433332  0.36078387  0.59571296     0.40400
H326        H  0.74942903  0.52511818  0.66971967     0.30500
H327        H  0.84339886  0.49961759  0.67730509     0.38100
H328        H  0.75461399  0.45999562  0.34452024     0.29900
H329        H  0.69274313  0.60601149  0.51897603     0.30000
H330        H  0.89939606  0.62321050  0.48200126     0.30200
Zr331      Zr  0.66192978  0.91687978  0.49428854     2.17500
O332        O  0.62031145  0.85286092  0.45983061    -0.52100
O333        O  0.59703745  0.92223572  0.55161812    -0.75300
O334        O  0.69382664  0.83971597  0.51871559    -0.82100
O335        O  0.60486688  0.00891736  0.41299026    -0.83800
O336        O  0.76259596  0.84856844  0.55734109    -0.79500
O337        O  0.60054481  0.93362938  0.43376939    -0.91100
O338        O  0.60337286  0.98906758  0.59104885    -0.77100
O339        O  0.70115152  0.93612621  0.56703830    -0.86600
O340        O  0.64628600  0.99612795  0.50716489    -0.86200
O341        O  0.74360534  0.90668570  0.47959161    -0.73000
O342        O  0.68983535  0.95918000  0.42614252    -0.85100
Zr343      Zr  0.79271943  0.04560608  0.49947061     2.26400
Zr344      Zr  0.78293758  0.92776651  0.55208352     2.06300
Zr345      Zr  0.67593902  0.03890475  0.44173019     2.10000
Zr346      Zr  0.68287309  0.01481560  0.58031509     1.78800
O347        O  0.66942595  0.04946921  0.35560475    -0.93900
O348        O  0.68685168  0.98037664  0.65965405    -0.41700
O349        O  0.71247428  0.05919877  0.51491974    -0.78400
O350        O  0.76479659  0.00564441  0.56844437    -0.97100
O351        O  0.81037575  0.96752879  0.48400674    -0.90400
O352        O  0.75529206  0.02659542  0.42664647    -0.93200
C353        C  0.57998231  0.95394065  0.57853667     1.00500
C354        C  0.58531277  0.97004828  0.41210320     1.13500
C355        C  0.73047315  0.82382002  0.54031232     1.04300
O356        O  0.78284977  0.92496719  0.63899510    -0.95400
O357        O  0.86087888  0.95755089  0.56804217    -0.91100
O358        O  0.86573643  0.02990949  0.53901873    -0.84300
C359        C  0.88298531  0.99481995  0.56030415     1.10900
O360        O  0.74880482  0.88023093  0.36774759    -0.97300
Zr361      Zr  0.77043156  0.94801121  0.41252687     1.88900
O362        O  0.84742533  0.04751782  0.43443268    -0.74000
O363        O  0.84170073  0.86752744  0.54803974    -0.53300
O364        O  0.83000428  0.89038956  0.39827205    -0.97900
O365        O  0.74517543  0.97346088  0.33346044    -0.55100
O366        O  0.84121278  0.98377147  0.38929143    -0.74500
C367        C  0.86044995  0.02140250  0.40017400     0.97800
O368        O  0.81806693  0.11022561  0.54731689    -0.63300
O369        O  0.61640430  0.09481764  0.46231242    -0.58100
O370        O  0.77533904  0.11968820  0.46462946    -0.94800
O371        O  0.70796063  0.11395375  0.42393483    -0.93200
O372        O  0.63629391  0.08421495  0.58833720    -0.93600
O373        O  0.71209340  0.06906312  0.63860981    -0.92400
C374        C  0.74359101  0.13631152  0.43739575     1.16700
H375        H  0.61353755  0.00217575  0.50762096     0.32600
H376        H  0.78129236  0.01542410  0.59660710     0.43500
H377        H  0.76523073  0.04545576  0.40032706     0.37000
H378        H  0.75119102  0.87571638  0.47101552     0.33500
H379        H  0.66630118  0.99961764  0.67958765     0.25300
H380        H  0.86065991  0.87058532  0.57733412     0.31200
H381        H  0.83889403  0.87943941  0.43055502     0.37100
H382        H  0.61316401  0.07703280  0.61307888     0.31600
H383        H  0.59766741  0.09848558  0.43287553     0.25700
H384        H  0.65578885  0.08041677  0.35147221     0.32100
H385        H  0.76075931  0.95255791  0.31077958     0.31100
H386        H  0.72985710  0.09126073  0.61948820     0.35100
H387        H  0.82288321  0.09797640  0.58002182     0.27800
H388        H  0.61103520  0.83349670  0.48715373     0.32100
H389        H  0.71717677  0.87342686  0.37866514     0.34900
H390        H  0.59581251  0.07908019  0.48499157     0.27500
H391        H  0.84930001  0.11755559  0.53562194     0.40400
H392        H  0.75871464  0.90261327  0.64704411     0.30500
H393        H  0.67039766  0.95107638  0.65664314     0.38100
H394        H  0.75989074  0.00340024  0.32822483     0.29900
H395        H  0.86222132  0.87660489  0.52155113     0.30000
H396        H  0.64368037  0.83457234  0.44236691     0.30200
Zr397      Zr  0.06598033  0.33992566  0.20017406     2.17500
O398        O  0.12848253  0.37817430  0.24212949    -0.52100
O399        O  0.05979975  0.40555811  0.14443150    -0.75300
O400        O  0.14480757  0.31385025  0.17523331    -0.82100
O401        O  0.97052492  0.39122208  0.27984741    -0.83800
O402        O  0.13737654  0.24512203  0.13792716    -0.79500
O403        O  0.04513107  0.40177580  0.25787265    -0.91100
O404        O  0.99064774  0.40067978  0.10732177    -0.77100
O405        O  0.04723120  0.30454461  0.12519635    -0.86600
O406        O  0.98555280  0.35333444  0.18803619    -0.86200
O407        O  0.07896858  0.25827980  0.20968254    -0.73000
O408        O  0.02586926  0.30659304  0.26695011    -0.85100
Zr409      Zr  0.93996902  0.20730836  0.18802121     2.26400
Zr410      Zr  0.05759453  0.22292527  0.13496056     2.06300
Zr411      Zr  0.94506409  0.31896956  0.25228227     2.10000
Zr412      Zr  0.96730700  0.32084194  0.11289602     1.78800
O413        O  0.93883550  0.32251008  0.33886687    -0.93900
O414        O  0.00348666  0.32583504  0.03460532    -0.41700
O415        O  0.92391177  0.28712161  0.17696623    -0.78400
O416        O  0.97840669  0.23934394  0.12010732    -0.97100
O417        O  0.01930084  0.19060384  0.20167656    -0.90400
O418        O  0.95984562  0.23990179  0.26277534    -0.93200
C419        C  0.02619663  0.42347580  0.12013290     1.00500
C420        C  0.00746613  0.41438158  0.27912650     1.13500
C421        C  0.16161358  0.27756486  0.15482784     1.04300
O422        O  0.05082791  0.23585348  0.04926412    -0.95400
O423        O  0.03307034  0.14223872  0.12684805    -0.91100
O424        O  0.95655370  0.13881367  0.14306709    -0.84300
C425        C  0.99449065  0.12065448  0.12901731     1.10900
O426        O  0.10838054  0.24278522  0.32156742    -0.97300
Zr427      Zr  0.03962400  0.22603963  0.27499486     1.88900
O428        O  0.93996362  0.14896975  0.24966828    -0.74000
O429        O  0.11204825  0.16406988  0.10806552    -0.53300
O430        O  0.10215311  0.16983591  0.27849917    -0.97900
O431        O  0.01830135  0.24445999  0.35695685    -0.55100
O432        O  0.00465488  0.15414560  0.29460999    -0.74500
C433        C  0.96699810  0.13475390  0.28307212     0.97800
O434        O  0.87656653  0.17794584  0.14002076    -0.63300
O435        O  0.88223032  0.37283299  0.23616001    -0.58100
O436        O  0.86604451  0.22357523  0.22457169    -0.94800
O437        O  0.87221348  0.28468798  0.27328756    -0.93200
O438        O  0.89600393  0.36520588  0.10568828    -0.93600
O439        O  0.91546651  0.29248080  0.05133033    -0.92400
C440        C  0.84995843  0.25078609  0.25641764     1.16700
H441        H  0.97795652  0.38549342  0.18903970     0.32600
H442        H  0.96845312  0.22411154  0.09135894     0.43500
H443        H  0.94180712  0.22801514  0.28881183     0.37000
H444        H  0.11016687  0.25108882  0.21885098     0.33500
H445        H  0.98225527  0.34513861  0.01521850     0.25300
H446        H  0.13123767  0.17819242  0.08296347     0.31200
H447        H  0.10117687  0.15440084  0.24709267     0.37100
H448        H  0.90110120  0.39307550  0.12488291     0.31600
H449        H  0.87983060  0.39169727  0.26538032     0.30500
H450        H  0.97025751  0.32950599  0.35042110     0.32100
H451        H  0.03912264  0.22578631  0.37746507     0.31100
H452        H  0.89693959  0.26886424  0.06757125     0.35100
H453        H  0.85854409  0.15838751  0.16185021     0.27800
H454        H  0.14768485  0.39219537  0.21698218     0.32100
H455        H  0.11015912  0.27656049  0.32114989     0.34900
H456        H  0.89432360  0.39384782  0.21161486     0.27500
H457        H  0.85632364  0.20472083  0.13328636     0.40400
H458        H  0.08285640  0.24070065  0.03847204     0.30500
H459        H  0.03100175  0.34503090  0.03938526     0.38100
H460        H  0.98744741  0.23114200  0.36158583     0.29900
H461        H  0.13325099  0.15820035  0.13529591     0.30000
H462        H  0.14792902  0.35358988  0.25634037     0.30200
Zr463      Zr  0.44065901  0.13856504  0.20194964     2.17500
O464        O  0.37573549  0.09177373  0.22655825    -0.52100
O465        O  0.45453382  0.07371005  0.14696312    -0.75300
O466        O  0.36317234  0.17072598  0.17797488    -0.82100
O467        O  0.53226600  0.07985907  0.28017045    -0.83800
O468        O  0.37368090  0.23215739  0.12957234    -0.79500
O469        O  0.45551505  0.07814031  0.26307434    -0.91100
O470        O  0.51652524  0.08766053  0.10016366    -0.77100
O471        O  0.45858700  0.18173159  0.13142500    -0.86600
O472        O  0.52073308  0.12601652  0.18729955    -0.86200
O473        O  0.42727418  0.21851804  0.22081668    -0.73000
O474        O  0.48165274  0.16419260  0.27215466    -0.85100
Zr475      Zr  0.56559206  0.27111003  0.20272172     2.26400
Zr476      Zr  0.44745739  0.26179647  0.15058002     2.06300
Zr477      Zr  0.56193128  0.15226994  0.25484907     2.10000
Zr478      Zr  0.53798332  0.16659309  0.11603091     1.78800
O479        O  0.58058347  0.14336150  0.33931320    -0.93900
O480        O  0.50119027  0.16920698  0.03760806    -0.41700
O481        O  0.58145485  0.19273036  0.18373379    -0.78400
O482        O  0.52583857  0.24644805  0.13241679    -0.97100
O483        O  0.48706667  0.28660446  0.21973946    -0.90400
O484        O  0.54767199  0.23002756  0.27346772    -0.93200
C485        C  0.48564652  0.06081435  0.11674810     1.00500
C486        C  0.49262415  0.06137945  0.28251057     1.13500
C487        C  0.34775279  0.20472863  0.15230287     1.04300
O488        O  0.43780123  0.27863640  0.06587898    -0.95400
O489        O  0.47744699  0.33921354  0.13341901    -0.91100
O490        O  0.54690179  0.34565983  0.16932446    -0.84300
C491        C  0.51319291  0.36274642  0.14518373     1.10900
O492        O  0.40195982  0.21638109  0.33356918    -0.97300
Zr493      Zr  0.46852799  0.24360677  0.28924431     1.88900
O494        O  0.56805492  0.32399346  0.26907837    -0.74000
O495        O  0.38695941  0.31434531  0.17729542    -0.53300
O496        O  0.40644713  0.29929941  0.30143026    -0.97900
O497        O  0.49371038  0.22114099  0.36931106    -0.55100
O498        O  0.50554312  0.31294446  0.31604220    -0.74500
C499        C  0.54216773  0.33442815  0.30463665     0.97800
O500        O  0.62770499  0.29711169  0.15137253    -0.63300
O501        O  0.61821958  0.09461854  0.23013072    -0.58100
O502        O  0.64033207  0.25260075  0.23558462    -0.94800
O503        O  0.63676772  0.18397174  0.27308369    -0.93200
O504        O  0.61116790  0.12662616  0.10459439    -0.93600
O505        O  0.58899438  0.20317382  0.05884720    -0.92400
C506        C  0.65808738  0.22026033  0.26081585     1.16700
H507        H  0.52890485  0.09406098  0.18569565     0.32600
H508        H  0.53499339  0.26462518  0.10527436     0.43500
H509        H  0.56680723  0.23930486  0.29993512     0.37000
H510        H  0.39565705  0.22473037  0.22923336     0.33500
H511        H  0.52092927  0.14953208  0.01725190     0.25300
H512        H  0.40194313  0.33289938  0.20232049     0.31200
H513        H  0.41986929  0.32938383  0.29376443     0.37100
H514        H  0.60910453  0.11349321  0.07211022     0.31600
H515        H  0.60031909  0.06735584  0.22111195     0.30500
H516        H  0.55353676  0.12852556  0.35382086     0.32100
H517        H  0.49356433  0.18730533  0.36912192     0.31100
H518        H  0.61294217  0.21786014  0.07870133     0.35100
H519        H  0.64898144  0.27060448  0.14818171     0.27800
H520        H  0.35684100  0.08684204  0.19753607     0.32100
H521        H  0.40414462  0.23048053  0.36559264     0.34900
H522        H  0.63044820  0.10627585  0.19953568     0.27500
H523        H  0.61332830  0.29986042  0.11932578     0.40400
H524        H  0.46197466  0.26010515  0.04991261     0.30500
H525        H  0.47234151  0.15180080  0.04127283     0.38100
H526        H  0.52670350  0.22911775  0.37143768     0.29900
H527        H  0.36462851  0.29552423  0.19507565     0.30000
H528        H  0.35663655  0.11147881  0.24751402     0.30200
C529        C  0.23478869  0.26025990  0.11149534    -0.02600
C530        C  0.21191586  0.26726133  0.15518988     0.07100
C531        C  0.23231110  0.24990566  0.19751962    -0.02700
C532        C  0.27451688  0.22524236  0.19617568    -0.02700
C533        C  0.29777057  0.21831095  0.15231419     0.07200
C534        C  0.27709991  0.23583406  0.10990983    -0.02900
Br535      Br  0.30536850  0.22422064  0.04874496    -0.01500
Br536      Br  0.20746161  0.28448000  0.05360756    -0.01600
Br537      Br  0.29992449  0.20172823  0.25534138    -0.01500
Br538      Br  0.20156289  0.25852891  0.25781752    -0.01500
C539        C  0.77109713  0.27812803  0.28397682    -0.02600
C540        C  0.80228133  0.24202569  0.27319521     0.07100
C541        C  0.78587665  0.19667150  0.27306176    -0.02700
C542        C  0.73833956  0.18842213  0.27259453    -0.02700
C543        C  0.70689129  0.22556351  0.27500010     0.07200
C544        C  0.72352917  0.26964290  0.28537786    -0.02900
Br545      Br  0.68103538  0.31897709  0.30078769    -0.01500
Br546      Br  0.79139515  0.33979355  0.29492496    -0.01600
Br547      Br  0.71804095  0.12628238  0.26437741    -0.01500
Br548      Br  0.82826699  0.14511323  0.27399588    -0.01500
C549        C  0.52091462  0.98242277  0.29878477    -0.02600
C550        C  0.49204515  0.01930906  0.31243908     0.07100
C551        C  0.48108124  0.02407729  0.36108799    -0.02700
C552        C  0.50619430  0.99898381  0.39590153    -0.02700
C553        C  0.54301587  0.96987813  0.38212323     0.07200
C554        C  0.54741629  0.95854328  0.33347255    -0.02900
Br555      Br  0.59536504  0.91643855  0.31410129    -0.01500
Br556      Br  0.52764857  0.96863946  0.23199807    -0.01600
Br557      Br  0.49562333  0.01004074  0.46276673    -0.01500
Br558      Br  0.43702954  0.07029246  0.37995719    -0.01500
C559        C  0.93330776  0.06462505  0.39058498    -0.02600
C560        C  0.89845856  0.03784296  0.36989173     0.07100
C561        C  0.89645930  0.03337331  0.31959316    -0.02700
C562        C  0.92335799  0.06179493  0.29074523    -0.02700
C563        C  0.95174592  0.09514201  0.31185600     0.07200
C564        C  0.95969625  0.09355326  0.36185658    -0.02900
Br565      Br  0.00338915  0.13274594  0.39347665    -0.01500
Br566      Br  0.94425643  0.06317171  0.45883808    -0.01600
Br567      Br  0.91965349  0.05540795  0.22209063    -0.01500
Br568      Br  0.85477904  0.99169546  0.28847702    -0.01500
C569        C  0.60882397  0.43811722  0.34130727    -0.02600
C570        C  0.61326634  0.42976847  0.39089750     0.07100
C571        C  0.58095473  0.40079180  0.41298667    -0.02700
C572        C  0.55466178  0.37067606  0.38537066    -0.02700
C573        C  0.55733524  0.37288556  0.33506471     0.07200
C574        C  0.57967610  0.41038719  0.31389833    -0.02900
Br575      Br  0.56901318  0.42465285  0.24765604    -0.01500
Br576      Br  0.64228939  0.48596026  0.30948299    -0.01600
Br577      Br  0.51855678  0.32508625  0.41782079    -0.01500
Br578      Br  0.57158955  0.40317926  0.48105511    -0.01500
C579        C  0.00323777  0.49251328  0.38416231    -0.02600
C580        C  0.95709389  0.50693314  0.37800437     0.07100
C581        C  0.93930980  0.50800405  0.33124679    -0.02700
C582        C  0.96320653  0.48554479  0.29420361    -0.02700
C583        C  0.00274289  0.45850682  0.30486848     0.07200
C584        C  0.02495518  0.46523073  0.34904902    -0.02900
Br585      Br  0.08152625  0.43318787  0.36375650    -0.01500
Br586      Br  0.03789363  0.51638284  0.43649139    -0.01600
Br587      Br  0.93828297  0.48579655  0.23027289    -0.01500
Br588      Br  0.87970268  0.53557407  0.31970275    -0.01500
C589        C  0.76039340  0.70744731  0.59341522    -0.02600
C590        C  0.78091148  0.68449688  0.55413693     0.07100
C591        C  0.78110403  0.70705779  0.50921323    -0.02700
C592        C  0.76210739  0.75162627  0.50416079    -0.02700
C593        C  0.74043081  0.77371927  0.54306169     0.07200
C594        C  0.73979311  0.75126186  0.58764761    -0.02900
Br595      Br  0.71037049  0.78112353  0.64097093    -0.01500
Br596      Br  0.76205600  0.67978874  0.65611359    -0.01600
Br597      Br  0.76773121  0.78321349  0.44388012    -0.01500
Br598      Br  0.80469561  0.67659806  0.45308412    -0.01500
C599        C  0.71001083  0.21543840  0.42330874    -0.02600
C600        C  0.74830955  0.18512439  0.42269863     0.07100
C601        C  0.79251113  0.20314534  0.41383427    -0.02700
C602        C  0.79951372  0.25076237  0.41481788    -0.02700
C603        C  0.76228622  0.28075986  0.42575821     0.07200
C604        C  0.71693495  0.26297227  0.42492350    -0.02900
Br605      Br  0.66321665  0.30298876  0.42673938    -0.01500
Br606      Br  0.64764641  0.19320428  0.42536299    -0.01600
Br607      Br  0.86085857  0.27295816  0.40299100    -0.01500
Br608      Br  0.84407418  0.16256862  0.40076778    -0.01500
C609        C  0.51449862  0.49832453  0.62136561    -0.02600
C610        C  0.49207786  0.45551625  0.62294464     0.07100
C611        C  0.51893024  0.41568914  0.61524756    -0.02700
C612        C  0.56688023  0.41862626  0.60589441    -0.02700
C613        C  0.58855569  0.46173586  0.59955904     0.07200
C614        C  0.56136364  0.50165239  0.60797239    -0.02900
Br615      Br  0.58622183  0.56229722  0.60063814    -0.01500
Br616      Br  0.48256726  0.55325851  0.64181718    -0.01600
Br617      Br  0.60245796  0.36246970  0.60587499    -0.01500
Br618      Br  0.48991265  0.35660183  0.61566251    -0.01500
C619        C  0.04749692  0.48526419  0.68237443    -0.02600
C620        C  0.08283604  0.48273140  0.64769147     0.07100
C621        C  0.06971958  0.47810768  0.59938612    -0.02700
C622        C  0.02259278  0.47887128  0.58621618    -0.02700
C623        C  0.98799669  0.49078136  0.61939366     0.07200
C624        C  0.00061053  0.49155322  0.66835086    -0.02900
Br625      Br  0.95362529  0.49810941  0.71640059    -0.01500
Br626      Br  0.06244892  0.47156766  0.74811249    -0.01600
Br627      Br  0.00449560  0.45197888  0.52667937    -0.01500
Br628      Br  0.11607716  0.46877571  0.55109379    -0.01500
C629        C  0.01370289  0.98095588  0.55649048    -0.02600
C630        C  0.02849176  0.00515645  0.59795743     0.07100
C631        C  0.99386682  0.02685973  0.62628480    -0.02700
C632        C  0.94653207  0.02347112  0.61396106    -0.02700
C633        C  0.93251499  0.99714660  0.57458618     0.07200
C634        C  0.96625022  0.97597142  0.54600290    -0.02900
Br635      Br  0.94678733  0.94083717  0.49114857    -0.01500
Br636      Br  0.05734192  0.95643606  0.51098893    -0.01600
Br637      Br  0.90004780  0.05374944  0.65204109    -0.01500
Br638      Br  0.00926474  0.05986920  0.68370965    -0.01500
C639        C  0.44775526  0.93319956  0.57763148    -0.02600
C640        C  0.43274334  0.95981790  0.61667311     0.07100
C641        C  0.46623683  0.98053902  0.64574653    -0.02700
C642        C  0.51393559  0.97625768  0.63519369    -0.02700
C643        C  0.52954500  0.95192941  0.59407266     0.07200
C644        C  0.49541158  0.92920910  0.56617866    -0.02900
Br645      Br  0.51194800  0.89236795  0.51145022    -0.01500
Br646      Br  0.40218777  0.90269383  0.53909327    -0.01600
Br647      Br  0.55719434  0.00110986  0.68062896    -0.01500
Br648      Br  0.44633691  0.01290248  0.70228086    -0.01500
C649        C  0.27899503  0.24961171  0.62753089    -0.02600
C650        C  0.28652314  0.27016428  0.67245531     0.07100
C651        C  0.27147474  0.24710617  0.71391619    -0.02700
C652        C  0.24933429  0.20429259  0.71047272    -0.02700
C653        C  0.24111478  0.18414244  0.66531701     0.07200
C654        C  0.25627510  0.20726911  0.62397675    -0.02900
Br655      Br  0.24479638  0.18101395  0.56192005    -0.01500
Br656      Br  0.30040540  0.27965135  0.57050153    -0.01600
Br657      Br  0.23207983  0.17273705  0.76820194    -0.01500
Br658      Br  0.27939225  0.27521636  0.77566060    -0.01500
C659        C  0.30243256  0.75958722  0.77968382    -0.02600
C660        C  0.25738375  0.77845227  0.78017053     0.07100
C661        C  0.21993902  0.74953671  0.79063524    -0.02700
C662        C  0.22698122  0.70188253  0.79212467    -0.02700
C663        C  0.27058169  0.68283769  0.78093183     0.07200
C664        C  0.30888691  0.71204630  0.77726523    -0.02900
Br665      Br  0.36959477  0.68892679  0.76202168    -0.01500
Br666      Br  0.35574668  0.79869359  0.78198917    -0.01600
Br667      Br  0.17632105  0.66284399  0.80855816    -0.01500
Br668      Br  0.15814168  0.77325731  0.79986908    -0.01500
C669        C  0.45152833  0.93699609  0.08966480    -0.02600
C670        C  0.49499303  0.91420975  0.08430251     0.07100
C671        C  0.53518942  0.94105880  0.08872851    -0.02700
C672        C  0.53208908  0.98793748  0.10106850    -0.02700
C673        C  0.48870473  0.01090507  0.10351864     0.07200
C674        C  0.44859379  0.98490385  0.09673039    -0.02900
Br675      Br  0.38895151  0.01518982  0.09472044    -0.01500
Br676      Br  0.39452078  0.90375855  0.08984797    -0.01600
Br677      Br  0.58824499  0.01868802  0.11881246    -0.01500
Br678      Br  0.59531541  0.91590708  0.07414960    -0.01500
C679        C  0.47525175  0.44074088  0.12752536    -0.02600
C680        C  0.51575622  0.41318925  0.13191032     0.07100
C681        C  0.55908667  0.43546203  0.12720226    -0.02700
C682        C  0.56164990  0.48347813  0.12084938    -0.02700
C683        C  0.52129223  0.51055327  0.11538998     0.07200
C684        C  0.47800126  0.48840489  0.11861552    -0.02900
Br685      Br  0.42091759  0.52196380  0.10822497    -0.01500
Br686      Br  0.41457425  0.41479744  0.13458615    -0.01600
Br687      Br  0.62136165  0.51236884  0.12275831    -0.01500
Br688      Br  0.61665711  0.40148823  0.12750881    -0.01500
C689        C  0.48727613  0.48529107  0.92389392    -0.02600
C690        C  0.51988266  0.51758536  0.90849243     0.07100
C691        C  0.53454089  0.51598631  0.86063210    -0.02700
C692        C  0.51011798  0.48941675  0.82699593    -0.02700
C693        C  0.47064924  0.46497586  0.84105231     0.07200
C694        C  0.46197344  0.45976729  0.89023924    -0.02900
Br695      Br  0.40990766  0.42443793  0.91057444    -0.01500
Br696      Br  0.47261467  0.48173580  0.99079884    -0.01600
Br697      Br  0.52549587  0.49222410  0.76018166    -0.01500
Br698      Br  0.58389158  0.55482339  0.84042244    -0.01500
C699        C  0.43992255  0.89258862  0.79363483    -0.02600
C700        C  0.40962160  0.92628090  0.81180470     0.07100
C701        C  0.41442428  0.93976293  0.86024522    -0.02700
C702        C  0.44051064  0.91229023  0.89175754    -0.02700
C703        C  0.46186641  0.87198811  0.87502410     0.07200
C704        C  0.46497498  0.86444470  0.82521667    -0.02900
Br705      Br  0.49888139  0.81329168  0.79890837    -0.01500
Br706      Br  0.44719267  0.88447659  0.72548392    -0.01600
Br707      Br  0.44652448  0.92951056  0.95808187    -0.01500
Br708      Br  0.38537002  0.99442323  0.88541387    -0.01500
C709        C  0.00330902  0.49139739  0.06698546    -0.02600
C710        C  0.02638796  0.47410718  0.10844632     0.07100
C711        C  0.04489619  0.50642389  0.14117407    -0.02700
C712        C  0.03928584  0.55398267  0.13316130    -0.02700
C713        C  0.01663969  0.57045988  0.09199081     0.07200
C714        C  0.99851119  0.53906535  0.05910178    -0.02900
Br715      Br  0.96801090  0.56192244  0.00216031    -0.01500
Br716      Br  0.97982062  0.45078699  0.01858385    -0.01600
Br717      Br  0.06023664  0.59744343  0.18010680    -0.01500
Br718      Br  0.07722457  0.48751406  0.19840092    -0.01500
C719        C  0.00273640  0.99176086  0.14561996    -0.02600
C720        C  0.97711792  0.97481335  0.10610726     0.07100
C721        C  0.95777946  0.00739550  0.07349472    -0.02700
C722        C  0.96461201  0.05486785  0.08025659    -0.02700
C723        C  0.99294477  0.07081791  0.11756841     0.07200
C724        C  0.01283654  0.03882240  0.14945003    -0.02900
Br725      Br  0.05221317  0.06002208  0.20041091    -0.01500
Br726      Br  0.01975680  0.95211417  0.19837932    -0.01600
Br727      Br  0.93612292  0.09869371  0.03726584    -0.01500
Br728      Br  0.92251080  0.98886723  0.01824148    -0.01500
C729        C  0.05923356  0.59860620  0.85320012    -0.02600
C730        C  0.06638064  0.59931714  0.90313653     0.07100
C731        C  0.09766913  0.56767302  0.92392443    -0.02700
C732        C  0.12706546  0.54136502  0.89492017    -0.02700
C733        C  0.12562762  0.54684647  0.84458347     0.07200
C734        C  0.09051395  0.57497579  0.82389061    -0.02900
Br735      Br  0.08614414  0.58587063  0.75552436    -0.01500
Br736      Br  0.00727758  0.62977474  0.82339681    -0.01600
Br737      Br  0.17246341  0.50268921  0.92629387    -0.01500
Br738      Br  0.10093778  0.56036918  0.99265987    -0.01500
C739        C  0.98531548  0.94051235  0.84612360    -0.02600
C740        C  0.99739294  0.95009813  0.89381476     0.07100
C741        C  0.02852811  0.98614526  0.90249212    -0.02700
C742        C  0.05235072  0.00704272  0.86426225    -0.02700
C743        C  0.04691379  0.99055117  0.81734177     0.07200
C744        C  0.01056463  0.95991240  0.80809424    -0.02900
Br745      Br  0.00036547  0.93920767  0.74358833    -0.01500
Br746      Br  0.94033055  0.89408855  0.83351934    -0.01600
Br747      Br  0.09751029  0.05330570  0.87684883    -0.01500
Br748      Br  0.04496906  0.00061094  0.96753171    -0.01500
C749        C  0.73439672  0.72215972  0.02036499    -0.02600
C750        C  0.71275143  0.71367344  0.06479540     0.07100
C751        C  0.73465208  0.72891591  0.10691534    -0.02700
C752        C  0.77579860  0.75427758  0.10463107    -0.02700
C753        C  0.79706982  0.76345224  0.06031555     0.07200
C754        C  0.77609669  0.74676908  0.01827473    -0.02900
Br755      Br  0.80582629  0.75542900  0.95744592    -0.01500
Br756      Br  0.70778074  0.70020221  0.96155418    -0.01600
Br757      Br  0.80339823  0.77664437  0.16266018    -0.01500
Br758      Br  0.70987838  0.71171438  0.16824492    -0.01500
C759        C  0.22799169  0.70273786  0.94102633    -0.02600
C760        C  0.21009930  0.74778998  0.94385650     0.07100
C761        C  0.23944840  0.78452595  0.93182748    -0.02700
C762        C  0.28726071  0.77662022  0.92727767    -0.02700
C763        C  0.30602804  0.73248547  0.93572778     0.07200
C764        C  0.27575908  0.69496423  0.93789208    -0.02900
Br765      Br  0.29792386  0.63247147  0.93944036    -0.01500
Br766      Br  0.18718346  0.65099185  0.93961852    -0.01600
Br767      Br  0.32706677  0.82639020  0.90898442    -0.01500
Br768      Br  0.21622800  0.84606764  0.92249035    -0.01500
loop_ 
_geom_bond_atom_site_label_1 
_geom_bond_atom_site_label_2 
_geom_bond_distance 
_geom_bond_site_symmetry_2 
_ccdc_geom_bond_type 
Zr1           O2   2.441   1_554  S
Zr1           O3   2.474       .  S
Zr1           O4   2.530       .  S
Zr1           O7   2.519   1_554  S
Zr1           O9   2.407       .  S
Zr1          O10   2.390   1_655  S
Zr1          O11   2.425       .  S
Zr1          O12   2.415   1_554  S
O2           H58   0.991   1_556  S
O2           H66   0.990       .  S
O3           C23   1.290       .  A
O4           C25   1.303       .  A
O5          Zr15   2.370       .  S
O5           C24   1.274   1_455  A
O6          Zr14   2.395       .  S
O6           C25   1.276       .  A
O7           C24   1.301       .  A
O8          Zr16   2.437       .  S
O8           C23   1.283   1_455  A
O9          Zr14   2.413       .  S
O9          Zr16   2.389   1_655  S
O10         Zr15   2.378   1_554  S
O10         Zr16   2.376       .  S
O10          H45   0.964       .  S
O11         Zr14   2.416       .  S
O11         Zr31   2.367   1_554  S
O11          H48   0.962   1_554  S
O12         Zr15   2.404   1_655  S
O12         Zr31   2.393       .  S
Zr13         O38   2.438       .  S
Zr13         O32   2.418   1_554  S
Zr13         O40   2.437   1_554  S
Zr13         O28   2.425       .  S
Zr13         O19   2.394       .  S
Zr13         O20   2.409       .  S
Zr13         O21   2.380   1_455  S
Zr13         O22   2.371   1_554  S
Zr14         O33   2.443       .  S
Zr14         O26   2.434       .  S
Zr14         O27   2.470       .  S
Zr14         O20   2.381   1_655  S
Zr14         O21   2.375       .  S
Zr15         O17   2.434       .  S
Zr15         O39   2.438       .  S
Zr15         O41   2.420       .  S
Zr15         O19   2.382   1_556  S
Zr15         O22   2.363       .  S
Zr16         O42   2.439       .  S
Zr16         O43   2.439       .  S
Zr16         O18   2.439       .  S
Zr16         O19   2.405       .  S
Zr16         O20   2.416       .  S
O17          H54   0.990       .  S
O18          H49   0.990       .  S
O18          H63   0.990   1_455  S
O20          H46   0.966       .  S
O21         Zr31   2.377   1_554  S
O22         Zr31   2.367   1_455  S
O22          H47   0.965       .  S
C23         C720   1.516       .  S
C24         C740   1.490       .  S
C25         C753   1.494       .  S
O26          H62   0.990       .  S
O27          C29   1.288   1_655  A
O28          C29   1.281       .  A
C29         C713   1.490       .  S
O30         Zr31   2.435       .  S
O30          H59   0.991       .  S
Zr31         O34   2.434       .  S
Zr31         O35   2.440   1_655  S
Zr31         O36   2.410   1_655  S
O32          C37   1.282       .  A
O33          H50   0.990       .  S
O33          H65   0.991       .  S
O34          H51   0.990       .  S
O35          H55   0.990   1_455  S
O35          H64   0.990       .  S
O36          C37   1.278       .  A
C37         C730   1.482       .  S
O38          H57   0.990       .  S
O38          H61   0.991       .  S
O39          H53   0.990   1_556  S
O39          H60   0.990   1_556  S
O40          C44   1.287       .  A
O41          C44   1.279       .  A
O42          H52   0.990       .  S
O43          H56   0.990       .  S
C44         C760   1.493       .  S
Zr67         O68   2.444   1_554  S
Zr67         O69   2.467       .  S
Zr67         O70   2.504       .  S
Zr67         O73   2.493   1_554  S
Zr67         O75   2.405       .  S
Zr67         O76   2.390       .  S
Zr67         O77   2.426       .  S
Zr67         O78   2.409   1_554  S
O68         H124   0.991   1_556  S
O68         H132   0.991       .  S
O69          C89   1.291       .  A
O70          C91   1.296       .  A
O71         Zr81   2.399       .  S
O71          C90   1.278       .  A
O72         Zr80   2.409       .  S
O72          C91   1.279       .  A
O73          C90   1.295       .  A
O74         Zr82   2.448       .  S
O74          C89   1.286       .  A
O75         Zr80   2.422       .  S
O75         Zr82   2.380       .  S
O76         Zr81   2.379   1_554  S
O76         Zr82   2.380       .  S
O76         H111   0.964       .  S
O77         Zr80   2.416       .  S
O77         Zr97   2.363   1_554  S
O77         H114   0.961   1_554  S
O78         Zr81   2.402       .  S
O78         Zr97   2.392       .  S
Zr79        O104   2.437       .  S
Zr79         O98   2.432   1_554  S
Zr79        O106   2.415   1_554  S
Zr79         O94   2.425       .  S
Zr79         O85   2.396       .  S
Zr79         O86   2.405       .  S
Zr79         O87   2.366   1_554  S
Zr79         O88   2.373   1_554  S
Zr80         O99   2.439       .  S
Zr80         O92   2.437       .  S
Zr80         O93   2.493       .  S
Zr80         O86   2.371       .  S
Zr80         O87   2.376   1_554  S
Zr81         O83   2.438       .  S
Zr81        O105   2.437       .  S
Zr81        O107   2.432       .  S
Zr81         O85   2.385   1_556  S
Zr81         O88   2.368       .  S
Zr82        O108   2.434       .  S
Zr82        O109   2.437       .  S
Zr82         O84   2.439       .  S
Zr82         O85   2.407       .  S
Zr82         O86   2.409       .  S
O83         H120   0.990       .  S
O84         H115   0.991       .  S
O84         H129   0.989       .  S
O86         H112   0.966       .  S
O87         Zr97   2.379       .  S
O88         Zr97   2.367       .  S
O88         H113   0.965       .  S
C89         C683   1.514       .  S
C90         C690   1.489       .  S
C91         C750   1.498       .  S
O92         H128   0.990       .  S
O93          C95   1.296       .  A
O94          C95   1.283       .  A
C95         C670   1.521       .  S
O96         Zr97   2.433       .  S
O96         H125   0.990       .  S
Zr97        O100   2.436       .  S
Zr97        O101   2.439       .  S
Zr97        O102   2.405       .  S
O98         C103   1.286       .  A
O99         H116   0.990       .  S
O99         H131   0.990       .  S
O100        H117   0.990       .  S
O101        H121   0.990       .  S
O101        H130   0.989       .  S
O102        C103   1.278       .  A
C103        C703   1.475       .  S
O104        H123   0.991       .  S
O104        H127   0.989       .  S
O105        H119   0.989       .  S
O105        H126   0.988   1_556  S
O106        C110   1.282       .  A
O107        C110   1.283       .  A
O108        H118   0.990       .  S
O109        H122   0.990       .  S
C110        C763   1.488       .  S
Zr133       O134   2.440       .  S
Zr133       O135   2.493       .  S
Zr133       O136   2.520       .  S
Zr133       O139   2.503       .  S
Zr133       O141   2.407       .  S
Zr133       O142   2.386   1_545  S
Zr133       O143   2.426       .  S
Zr133       O144   2.420   1_545  S
O134        H190   0.990       .  S
O134        H198   0.990       .  S
O135        C155   1.294       .  A
O136        C157   1.301       .  A
O137       Zr147   2.397       .  S
O137        C156   1.278       .  A
O138       Zr146   2.413       .  S
O138        C157   1.281       .  A
O139        C156   1.297   1_545  A
O140       Zr148   2.426       .  S
O140        C155   1.281   1_565  A
O141       Zr146   2.421       .  S
O141       Zr148   2.392   1_545  S
O142       Zr147   2.381       .  S
O142       Zr148   2.380       .  S
O142        H177   0.965       .  S
O143       Zr146   2.419       .  S
O143       Zr163   2.354       .  S
O143        H180   0.960       .  S
O144       Zr147   2.397       .  S
O144       Zr163   2.400   1_565  S
Zr145       O170   2.440       .  S
Zr145       O164   2.430       .  S
Zr145       O172   2.420       .  S
Zr145       O160   2.427       .  S
Zr145       O151   2.401       .  S
Zr145       O152   2.402       .  S
Zr145       O153   2.374       .  S
Zr145       O154   2.376       .  S
Zr146       O165   2.440       .  S
Zr146       O158   2.434       .  S
Zr146       O159   2.497   1_545  S
Zr146       O152   2.379   1_545  S
Zr146       O153   2.374   1_545  S
Zr147       O149   2.432       .  S
Zr147       O171   2.435       .  S
Zr147       O173   2.428       .  S
Zr147       O151   2.390       .  S
Zr147       O154   2.371       .  S
Zr148       O174   2.437       .  S
Zr148       O175   2.437       .  S
Zr148       O150   2.438       .  S
Zr148       O151   2.405       .  S
Zr148       O152   2.411       .  S
O149        H186   0.990       .  S
O150        H181   0.990       .  S
O150        H195   0.990   1_565  S
O152        H178   0.966       .  S
O153       Zr163   2.383   1_565  S
O154       Zr163   2.358   1_565  S
O154        H179   0.965       .  S
C155        C630   1.520       .  S
C156        C743   1.495       .  S
C157        C653   1.495       .  S
O158        H194   0.990       .  S
O159        C161   1.294       .  A
O160        C161   1.282       .  A
C161        C640   1.505       .  S
O162       Zr163   2.442       .  S
O162        H191   0.990       .  S
Zr163       O166   2.440       .  S
Zr163       O167   2.447   1_545  S
Zr163       O168   2.402   1_545  S
O164        C169   1.285       .  A
O165        H182   0.990       .  S
O165        H197   0.991       .  S
O166        H183   0.990       .  S
O167        H187   0.988   1_565  S
O167        H196   0.990       .  S
O168        C169   1.275       .  A
C169        C700   1.484       .  S
O170        H189   0.990       .  S
O170        H193   0.990       .  S
O171        H185   0.991       .  S
O171        H192   0.989       .  S
O172        C176   1.284       .  A
O173        C176   1.282       .  A
O174        H184   0.990       .  S
O175        H188   0.990       .  S
C176        C660   1.486       .  S
Zr199       O200   2.442       .  S
Zr199       O201   2.484       .  S
Zr199       O202   2.522       .  S
Zr199       O205   2.496       .  S
Zr199       O207   2.402       .  S
Zr199       O208   2.393       .  S
Zr199       O209   2.429       .  S
Zr199       O210   2.419       .  S
O200        H256   0.991       .  S
O200        H264   0.990       .  S
O201        C221   1.293       .  A
O202        C223   1.301       .  A
O203       Zr213   2.391       .  S
O203        C222   1.276       .  A
O204       Zr212   2.390       .  S
O204        C223   1.276       .  A
O205        C222   1.296       .  A
O206       Zr214   2.440       .  S
O206        C221   1.286       .  A
O207       Zr212   2.413       .  S
O207       Zr214   2.379       .  S
O208       Zr213   2.372       .  S
O208       Zr214   2.384       .  S
O208        H243   0.964       .  S
O209       Zr212   2.417       .  S
O209       Zr229   2.381       .  S
O209        H246   0.962       .  S
O210       Zr213   2.402       .  S
O210       Zr229   2.399       .  S
Zr211       O236   2.437       .  S
Zr211       O230   2.400       .  S
Zr211       O238   2.432       .  S
Zr211       O226   2.454       .  S
Zr211       O217   2.406       .  S
Zr211       O218   2.404       .  S
Zr211       O219   2.378       .  S
Zr211       O220   2.382       .  S
Zr212       O231   2.441       .  S
Zr212       O224   2.436       .  S
Zr212       O225   2.469       .  S
Zr212       O218   2.373       .  S
Zr212       O219   2.379       .  S
Zr213       O215   2.436       .  S
Zr213       O237   2.434       .  S
Zr213       O239   2.428       .  S
Zr213       O217   2.387       .  S
Zr213       O220   2.365       .  S
Zr214       O240   2.435       .  S
Zr214       O241   2.437       .  S
Zr214       O216   2.438       .  S
Zr214       O217   2.413       .  S
Zr214       O218   2.410       .  S
O215        H252   0.989       .  S
O216        H247   0.989       .  S
O216        H261   0.991       .  S
O218        H244   0.966       .  S
O219       Zr229   2.375       .  S
O220       Zr229   2.367       .  S
O220        H245   0.965       .  S
C221        C610   1.509       .  S
C222        C693   1.486       .  S
C223        C650   1.492       .  S
O224        H260   0.989       .  S
O225        C227   1.289       .  A
O226        C227   1.288       .  A
C227        C620   1.505       .  S
O228       Zr229   2.436       .  S
O228        H257   0.991       .  S
Zr229       O232   2.435       .  S
Zr229       O233   2.437       .  S
Zr229       O234   2.440       .  S
O230        C235   1.277       .  A
O231        H248   0.990       .  S
O231        H263   0.991       .  S
O232        H249   0.990       .  S
O233        H253   0.990       .  S
O233        H262   0.989       .  S
O234        C235   1.285       .  A
C235        C733   1.485       .  S
O236        H255   0.991       .  S
O236        H259   0.990       .  S
O237        H251   0.990       .  S
O237        H258   0.989       .  S
O238        C242   1.285       .  A
O239        C242   1.282       .  A
O240        H250   0.991       .  S
O241        H254   0.991       .  S
C242        C663   1.484       .  S
Zr265       O266   2.441       .  S
Zr265       O267   2.510       .  S
Zr265       O268   2.516       .  S
Zr265       O271   2.481       .  S
Zr265       O273   2.397       .  S
Zr265       O274   2.392       .  S
Zr265       O275   2.429       .  S
Zr265       O276   2.426       .  S
O266        H322   0.990       .  S
O266        H330   0.990       .  S
O267        C287   1.299       .  A
O268        C289   1.300       .  A
O269       Zr279   2.430       .  S
O269        C288   1.285       .  A
O270       Zr278   2.407       .  S
O270        C289   1.280       .  A
O271        C288   1.292       .  A
O272       Zr280   2.425       .  S
O272        C287   1.280       .  A
O273       Zr278   2.422       .  S
O273       Zr280   2.391       .  S
O274       Zr279   2.386       .  S
O274       Zr280   2.383       .  S
O274        H309   0.955       .  S
O275       Zr278   2.405       .  S
O275       Zr295   2.379       .  S
O275        H312   0.962       .  S
O276       Zr279   2.395       .  S
O276       Zr295   2.401       .  S
Zr277       O302   2.436       .  S
Zr277       O296   2.413       .  S
Zr277       O304   2.415       .  S
Zr277       O292   2.440       .  S
Zr277       O283   2.397       .  S
Zr277       O284   2.397       .  S
Zr277       O285   2.367       .  S
Zr277       O286   2.381       .  S
Zr278       O297   2.439       .  S
Zr278       O290   2.434       .  S
Zr278       O291   2.474       .  S
Zr278       O284   2.385       .  S
Zr278       O285   2.373       .  S
Zr279       O281   2.434       .  S
Zr279       O303   2.433       .  S
Zr279       O305   2.453       .  S
Zr279       O283   2.391       .  S
Zr279       O286   2.376       .  S
Zr280       O306   2.437       .  S
Zr280       O307   2.437       .  S
Zr280       O282   2.436       .  S
Zr280       O283   2.405       .  S
Zr280       O284   2.402       .  S
O281        H318   0.990       .  S
O282        H313   0.990       .  S
O282        H327   0.990       .  S
O284        H310   0.966       .  S
O285       Zr295   2.377       .  S
O286       Zr295   2.362       .  S
O286        H311   0.965       .  S
C287        C623   1.509       .  S
C288        C580   1.490       .  S
C289        C590   1.503       .  S
O290        H326   0.989       .  S
O291        C293   1.292       .  A
O292        C293   1.286       .  A
C293        C613   1.522       .  S
O294       Zr295   2.435       .  S
O294        H323   0.990       .  S
Zr295       O298   2.437       .  S
Zr295       O299   2.440       .  S
Zr295       O300   2.439       .  S
O296        C301   1.282       .  A
O297        H314   0.990       .  S
O297        H329   0.990       .  S
O298        H315   0.990       .  S
O299        H319   0.990       .  S
O299        H328   0.989       .  S
O300        C301   1.284       .  A
C301        C570   1.490       .  S
O302        H321   0.990       .  S
O302        H325   0.990       .  S
O303        H317   0.990       .  S
O303        H324   0.990       .  S
O304        C308   1.281       .  A
O305        C308   1.286       .  A
O306        H316   0.991       .  S
O307        H320   0.990       .  S
C308        C603   1.500       .  S
Zr331       O332   2.440       .  S
Zr331       O333   2.482       .  S
Zr331       O334   2.521       .  S
Zr331       O337   2.496       .  S
Zr331       O339   2.400       .  S
Zr331       O340   2.386       .  S
Zr331       O341   2.421       .  S
Zr331       O342   2.418       .  S
O332        H388   0.990       .  S
O332        H396   0.990       .  S
O333        C353   1.292       .  A
O334        C355   1.301       .  A
O335       Zr345   2.388       .  S
O335        C354   1.277   1_545  A
O336       Zr344   2.402       .  S
O336        C355   1.278       .  A
O337        C354   1.296       .  A
O338       Zr346   2.454   1_565  S
O338        C353   1.287       .  A
O339       Zr344   2.420       .  S
O339       Zr346   2.387   1_565  S
O340       Zr345   2.384   1_565  S
O340       Zr346   2.371   1_565  S
O340        H375   0.964   1_565  S
O341       Zr344   2.409       .  S
O341       Zr361   2.369       .  S
O341        H378   0.961       .  S
O342       Zr345   2.404   1_565  S
O342       Zr361   2.389       .  S
Zr343       O368   2.439       .  S
Zr343       O362   2.421       .  S
Zr343       O370   2.420       .  S
Zr343       O358   2.424       .  S
Zr343       O349   2.398       .  S
Zr343       O350   2.402       .  S
Zr343       O351   2.376   1_545  S
Zr343       O352   2.376       .  S
Zr344       O363   2.440       .  S
Zr344       O356   2.434       .  S
Zr344       O357   2.472       .  S
Zr344       O350   2.378   1_565  S
Zr344       O351   2.374       .  S
Zr345       O347   2.436       .  S
Zr345       O369   2.436       .  S
Zr345       O371   2.445       .  S
Zr345       O349   2.383       .  S
Zr345       O352   2.365       .  S
Zr346       O372   2.437       .  S
Zr346       O373   2.437       .  S
Zr346       O348   2.437   1_545  S
Zr346       O349   2.408       .  S
Zr346       O350   2.412       .  S
O347        H384   0.990       .  S
O348        H379   0.990       .  S
O348        H393   0.990       .  S
O350        H376   0.966       .  S
O351       Zr361   2.382       .  S
O352       Zr361   2.370   1_545  S
O352        H377   0.966       .  S
C353        C643   1.530       .  S
C354        C553   1.484       .  S
C355        C593   1.492       .  S
O356        H392   0.990       .  S
O357        C359   1.290       .  A
O358        C359   1.281   1_545  A
C359        C633   1.492       .  S
O360       Zr361   2.436       .  S
O360        H389   0.990       .  S
Zr361       O364   2.434       .  S
Zr361       O365   2.440       .  S
Zr361       O366   2.406       .  S
O362        C367   1.283       .  A
O363        H380   0.990       .  S
O363        H395   0.990       .  S
O364        H381   0.990       .  S
O365        H385   0.990       .  S
O365        H394   0.990   1_565  S
O366        C367   1.277   1_565  A
C367        C560   1.477       .  S
O368        H387   0.991       .  S
O368        H391   0.990       .  S
O369        H383   0.990       .  S
O369        H390   0.990       .  S
O370        C374   1.283       .  A
O371        C374   1.286       .  A
O372        H382   0.990       .  S
O373        H386   0.991       .  S
C374        C600   1.493       .  S
Zr397       O398   2.441       .  S
Zr397       O399   2.474       .  S
Zr397       O400   2.504       .  S
Zr397       O403   2.500       .  S
Zr397       O405   2.406       .  S
Zr397       O406   2.384   1_455  S
Zr397       O407   2.427       .  S
Zr397       O408   2.415       .  S
O398        H454   0.990       .  S
O398        H462   0.990       .  S
O399        C419   1.291       .  A
O400        C421   1.298       .  A
O401       Zr411   2.377       .  S
O401        C420   1.275   1_655  A
O402       Zr410   2.412       .  S
O402        C421   1.279       .  A
O403        C420   1.296       .  A
O404       Zr412   2.444       .  S
O404        C419   1.285   1_655  A
O405       Zr410   2.417       .  S
O405       Zr412   2.385   1_455  S
O406       Zr411   2.378       .  S
O406       Zr412   2.371       .  S
O406        H441   0.964       .  S
O407       Zr410   2.418       .  S
O407       Zr427   2.359       .  S
O407        H444   0.960       .  S
O408       Zr411   2.401   1_455  S
O408       Zr427   2.395       .  S
Zr409       O434   2.439       .  S
Zr409       O428   2.423       .  S
Zr409       O436   2.422       .  S
Zr409       O424   2.414       .  S
Zr409       O415   2.394       .  S
Zr409       O416   2.401       .  S
Zr409       O417   2.376   1_655  S
Zr409       O418   2.374       .  S
Zr410       O429   2.445       .  S
Zr410       O422   2.434       .  S
Zr410       O423   2.484       .  S
Zr410       O416   2.376   1_455  S
Zr410       O417   2.376       .  S
Zr411       O413   2.433       .  S
Zr411       O435   2.435       .  S
Zr411       O437   2.423       .  S
Zr411       O415   2.388       .  S
Zr411       O418   2.364       .  S
Zr412       O438   2.436       .  S
Zr412       O439   2.437       .  S
Zr412       O414   2.438   1_655  S
Zr412       O415   2.410       .  S
Zr412       O416   2.410       .  S
O413        H450   0.990       .  S
O414        H445   0.990   1_455  S
O414        H459   0.990       .  S
O416        H442   0.966       .  S
O417       Zr427   2.377       .  S
O418       Zr427   2.368   1_655  S
O418        H443   0.965       .  S
C419        C710   1.516       .  S
C420        C583   1.485       .  S
C421        C530   1.486       .  S
O422        H458   0.990       .  S
O423        C425   1.293   1_455  A
O424        C425   1.280       .  A
C425        C723   1.495       .  S
O426       Zr427   2.434       .  S
O426        H455   0.990       .  S
Zr427       O430   2.435       .  S
Zr427       O431   2.439       .  S
Zr427       O432   2.409       .  S
O428        C433   1.283       .  A
O429        H446   0.990       .  S
O429        H461   0.991       .  S
O430        H447   0.990       .  S
O431        H451   0.990       .  S
O431        H460   0.989   1_455  S
O432        C433   1.278   1_455  A
C433        C563   1.482       .  S
O434        H453   0.991       .  S
O434        H457   0.990       .  S
O435        H449   0.990       .  S
O435        H456   0.989       .  S
O436        C440   1.282       .  A
O437        C440   1.280       .  A
O438        H448   0.990       .  S
O439        H452   0.991       .  S
C440        C540   1.487       .  S
Zr463       O464   2.441       .  S
Zr463       O465   2.477       .  S
Zr463       O466   2.514       .  S
Zr463       O469   2.489       .  S
Zr463       O471   2.402       .  S
Zr463       O472   2.384       .  S
Zr463       O473   2.426       .  S
Zr463       O474   2.419       .  S
O464        H520   0.990       .  S
O464        H528   0.990       .  S
O465        C485   1.293       .  A
O466        C487   1.299       .  A
O467       Zr477   2.402       .  S
O467        C486   1.278       .  A
O468       Zr476   2.391       .  S
O468        C487   1.276       .  A
O469        C486   1.295       .  A
O470       Zr478   2.440       .  S
O470        C485   1.285       .  A
O471       Zr476   2.423       .  S
O471       Zr478   2.381       .  S
O472       Zr477   2.368       .  S
O472       Zr478   2.376       .  S
O472        H507   0.963       .  S
O473       Zr476   2.413       .  S
O473       Zr493   2.377       .  S
O473        H510   0.963       .  S
O474       Zr477   2.402       .  S
O474       Zr493   2.400       .  S
Zr475       O500   2.436       .  S
Zr475       O494   2.422       .  S
Zr475       O502   2.407       .  S
Zr475       O490   2.424       .  S
Zr475       O481   2.395       .  S
Zr475       O482   2.394       .  S
Zr475       O483   2.367       .  S
Zr475       O484   2.376       .  S
Zr476       O495   2.440       .  S
Zr476       O488   2.434       .  S
Zr476       O489   2.482       .  S
Zr476       O482   2.370       .  S
Zr476       O483   2.368       .  S
Zr477       O479   2.436       .  S
Zr477       O501   2.437       .  S
Zr477       O503   2.424       .  S
Zr477       O481   2.386       .  S
Zr477       O484   2.367       .  S
Zr478       O504   2.434       .  S
Zr478       O505   2.438       .  S
Zr478       O480   2.438       .  S
Zr478       O481   2.404       .  S
Zr478       O482   2.404       .  S
O479        H516   0.989       .  S
O480        H511   0.990       .  S
O480        H525   0.990       .  S
O482        H508   0.966       .  S
O483       Zr493   2.380       .  S
O484       Zr493   2.368       .  S
O484        H509   0.965       .  S
C485        C673   1.509       .  S
C486        C550   1.487       .  S
C487        C533   1.499       .  S
O488        H524   0.990       .  S
O489        C491   1.294       .  A
O490        C491   1.282       .  A
C491        C680   1.523       .  S
O492       Zr493   2.439       .  S
O492        H521   0.990       .  S
Zr493       O496   2.439       .  S
Zr493       O497   2.440       .  S
Zr493       O498   2.426       .  S
O494        C499   1.284       .  A
O495        H512   0.990       .  S
O495        H527   0.990       .  S
O496        H513   0.990       .  S
O497        H517   0.990       .  S
O497        H526   0.989       .  S
O498        C499   1.282       .  A
C499        C573   1.483       .  S
O500        H519   0.990       .  S
O500        H523   0.990       .  S
O501        H515   0.990       .  S
O501        H522   0.989       .  S
O502        C506   1.281       .  A
O503        C506   1.282       .  A
O504        H514   0.990       .  S
O505        H518   0.991       .  S
C506        C543   1.479       .  S
C529        C530   1.408       .  A
C529        C534   1.414       .  A
C529       Br536   1.930       .  S
C530        C531   1.412       .  A
C531        C532   1.414       .  A
C531       Br538   1.928       .  S
C532        C533   1.417       .  A
C532       Br537   1.931       .  S
C533        C534   1.419       .  A
C534       Br535   1.930       .  S
C539        C540   1.416       .  A
C539        C544   1.405       .  A
C539       Br546   1.929       .  S
C540        C541   1.415       .  A
C541        C542   1.403       .  A
C541       Br548   1.934       .  S
C542        C543   1.412       .  A
C542       Br547   1.932       .  S
C543        C544   1.413       .  A
C544       Br545   1.937       .  S
C549        C550   1.412   1_565  A
C549        C554   1.414       .  A
C549       Br556   1.924       .  S
C550        C551   1.407       .  A
C551        C552   1.413   1_545  A
C551       Br558   1.926       .  S
C552        C553   1.413       .  A
C552       Br557   1.925   1_565  S
C553        C554   1.408       .  A
C554       Br555   1.927       .  S
C559        C560   1.410       .  A
C559        C564   1.402       .  A
C559       Br566   1.936       .  S
C560        C561   1.415       .  A
C561        C562   1.403       .  A
C561       Br568   1.934   1_545  S
C562        C563   1.413       .  A
C562       Br567   1.934       .  S
C563        C564   1.418       .  A
C564       Br565   1.933   1_655  S
C569        C570   1.414       .  A
C569        C574   1.406       .  A
C569       Br576   1.930       .  S
C570        C571   1.414       .  A
C571        C572   1.404       .  A
C571       Br578   1.927       .  S
C572        C573   1.412       .  A
C572       Br577   1.932       .  S
C573        C574   1.411       .  A
C574       Br575   1.922       .  S
C579        C580   1.408   1_455  A
C579        C584   1.413       .  A
C579       Br586   1.912       .  S
C580        C581   1.405       .  A
C581        C582   1.409       .  A
C581       Br588   1.925       .  S
C582        C583   1.416   1_655  A
C582       Br587   1.927       .  S
C583        C584   1.408       .  A
C584       Br585   1.922       .  S
C589        C590   1.419       .  A
C589        C594   1.416       .  A
C589       Br596   1.930       .  S
C590        C591   1.418       .  A
C591        C592   1.416       .  A
C591       Br598   1.932       .  S
C592        C593   1.414       .  A
C592       Br597   1.930       .  S
C593        C594   1.409       .  A
C594       Br595   1.929       .  S
C599        C600   1.413       .  A
C599        C604   1.408       .  A
C599       Br606   1.931       .  S
C600        C601   1.415       .  A
C601        C602   1.410       .  A
C601       Br608   1.935       .  S
C602        C603   1.418       .  A
C602       Br607   1.931       .  S
C603        C604   1.421       .  A
C604       Br605   1.938       .  S
C609        C610   1.419       .  A
C609        C614   1.416       .  A
C609       Br616   1.934       .  S
C610        C611   1.411       .  A
C611        C612   1.420       .  A
C611       Br618   1.932       .  S
C612        C613   1.427       .  A
C612       Br617   1.929       .  S
C613        C614   1.422       .  A
C614       Br615   1.934       .  S
C619        C620   1.416       .  A
C619        C624   1.424       .  A
C619       Br626   1.928       .  S
C620        C621   1.410       .  A
C621        C622   1.414       .  A
C621       Br628   1.928       .  S
C622        C623   1.411   1_455  A
C622       Br627   1.919       .  S
C623        C624   1.417   1_655  A
C624       Br625   1.927   1_455  S
C629        C630   1.429   1_565  A
C629        C634   1.416   1_455  A
C629       Br636   1.933       .  S
C630        C631   1.426   1_455  A
C631        C632   1.419       .  A
C631       Br638   1.931   1_655  S
C632        C633   1.408   1_545  A
C632       Br637   1.931       .  S
C633        C634   1.406       .  A
C634       Br635   1.936       .  S
C639        C640   1.411       .  A
C639        C644   1.424       .  A
C639       Br646   1.931       .  S
C640        C641   1.409       .  A
C641        C642   1.420       .  A
C641       Br648   1.933   1_565  S
C642        C643   1.428       .  A
C642       Br647   1.933   1_565  S
C643        C644   1.430       .  A
C644       Br645   1.934       .  S
C649        C650   1.413       .  A
C649        C654   1.414       .  A
C649       Br656   1.928       .  S
C650        C651   1.414       .  A
C651        C652   1.418       .  A
C651       Br658   1.930       .  S
C652        C653   1.417       .  A
C652       Br657   1.929       .  S
C653        C654   1.413       .  A
C654       Br655   1.931       .  S
C659        C660   1.412       .  A
C659        C664   1.403       .  A
C659       Br666   1.936       .  S
C660        C661   1.416       .  A
C661        C662   1.407       .  A
C661       Br668   1.933       .  S
C662        C663   1.412       .  A
C662       Br667   1.928       .  S
C663        C664   1.414       .  A
C664       Br665   1.928       .  S
C669        C670   1.428       .  A
C669        C674   1.418       .  A
C669       Br676   1.928       .  S
C670        C671   1.419       .  A
C671        C672   1.417       .  A
C671       Br678   1.930       .  S
C672        C673   1.421   1_565  A
C672       Br677   1.934   1_565  S
C673        C674   1.410   1_545  A
C674       Br675   1.935   1_565  S
C679        C680   1.421       .  A
C679        C684   1.419       .  A
C679       Br686   1.936       .  S
C680        C681   1.429       .  A
C681        C682   1.418       .  A
C681       Br688   1.933       .  S
C682        C683   1.413       .  A
C682       Br687   1.937       .  S
C683        C684   1.423       .  A
C684       Br685   1.935       .  S
C689        C690   1.412       .  A
C689        C694   1.413       .  A
C689       Br696   1.925       .  S
C690        C691   1.408       .  A
C691        C692   1.416       .  A
C691       Br698   1.924       .  S
C692        C693   1.413       .  A
C692       Br697   1.926       .  S
C693        C694   1.409       .  A
C694       Br695   1.927       .  S
C699        C700   1.410       .  A
C699        C704   1.401       .  A
C699       Br706   1.935       .  S
C700        C701   1.420       .  A
C701        C702   1.404       .  A
C701       Br708   1.935       .  S
C702        C703   1.408       .  A
C702       Br707   1.933       .  S
C703        C704   1.415       .  A
C704       Br705   1.930       .  S
C709        C710   1.426       .  A
C709        C714   1.416   1_455  A
C709       Br716   1.932   1_455  S
C710        C711   1.427       .  A
C711        C712   1.416       .  A
C711       Br718   1.929       .  S
C712        C713   1.405       .  A
C712       Br717   1.933       .  S
C713        C714   1.407   1_455  A
C714       Br715   1.933       .  S
C719        C720   1.424   1_455  A
C719        C724   1.415   1_565  A
C719       Br726   1.934       .  S
C720        C721   1.426   1_565  A
C721        C722   1.418       .  A
C721       Br728   1.933   1_545  S
C722        C723   1.410       .  A
C722       Br727   1.932       .  S
C723        C724   1.408   1_655  A
C724       Br725   1.932       .  S
C729        C730   1.412       .  A
C729        C734   1.403       .  A
C729       Br736   1.937       .  S
C730        C731   1.411       .  A
C731        C732   1.404       .  A
C731       Br738   1.937       .  S
C732        C733   1.418       .  A
C732       Br737   1.932       .  S
C733        C734   1.422       .  A
C734       Br735   1.942       .  S
C739        C740   1.409       .  A
C739        C744   1.416   1_655  A
C739       Br746   1.927       .  S
C740        C741   1.417   1_655  A
C741        C742   1.417   1_565  A
C741       Br748   1.930   1_565  S
C742        C743   1.409   1_545  A
C742       Br747   1.927       .  S
C743        C744   1.416       .  A
C744       Br745   1.929       .  S
C749        C750   1.418       .  A
C749        C754   1.416       .  A
C749       Br756   1.931   1_554  S
C750        C751   1.413       .  A
C751        C752   1.414       .  A
C751       Br758   1.931       .  S
C752        C753   1.414       .  A
C752       Br757   1.928       .  S
C753        C754   1.414       .  A
C754       Br755   1.929   1_554  S
C759        C760   1.413       .  A
C759        C764   1.404       .  A
C759       Br766   1.933       .  S
C760        C761   1.419       .  A
C761        C762   1.410       .  A
C761       Br768   1.931       .  S
C762        C763   1.414       .  A
C762       Br767   1.938       .  S
C763        C764   1.415       .  A
C764       Br765   1.931       .  S
