geometry optimzed in LAMMPS
_audit_creation_date              2020-11-30 
_audit_creation_method            'lammps2cif' 
_symmetry_space_group_name_H-M    'P1' 
_symmetry_Int_Tables_number       1 
_symmetry_cell_setting            triclinic 
loop_ 
_symmetry_equiv_pos_as_xyz 
  x,y,z 
_cell_length_a                    39.10081576 
_cell_length_b                    38.89891095283872 
_cell_length_c                    41.48919557211852 
_cell_angle_alpha                 89.49552872293924 
_cell_angle_beta                  90.32019794362216 
_cell_angle_gamma                 120.36625527792452 
loop_ 
_atom_site_label 
_atom_site_type_symbol 
_atom_site_fract_x 
_atom_site_fract_y 
_atom_site_fract_z 
_atom_site_charge 
O1          O  0.27033041  0.48715899  0.63237353    -0.82900
C2          C  0.39942218  0.51432232  0.55147894     0.96400
O3          O  0.37383078  0.52438960  0.54681545    -0.72100
O4          O  0.29905324  0.47242202  0.54460871    -0.75600
Al5        Al  0.32934208  0.51875680  0.56953285     1.49000
C6          C  0.26499028  0.44470730  0.55199201     0.91700
O7          O  0.30415757  0.41385934  0.60935888    -0.81900
O8          O  0.36606542  0.51059718  0.66176737    -0.75400
Al9        Al  0.28860751  0.45182009  0.61988965     1.90100
O10         O  0.36613696  0.45050850  0.62638746    -0.74500
O11         O  0.40450993  0.56236182  0.61507515    -0.74300
O12         O  0.40296085  0.50188750  0.57877870    -0.80000
O13         O  0.35908656  0.56848628  0.58950355    -0.78200
O14         O  0.33323610  0.49204396  0.60270136    -1.14300
O15         O  0.28397215  0.51931937  0.58596196    -0.73500
C16         C  0.26841819  0.51204540  0.61371652     0.97200
C17         C  0.33691553  0.41723319  0.61794326     0.93600
Al18       Al  0.38071309  0.50506634  0.61914587     1.55600
O19         O  0.25595482  0.43653526  0.58130879    -0.78200
C20         C  0.39122946  0.58404452  0.60474105     0.97700
C21         C  0.33715124  0.48401320  0.67746933     0.92600
O22         O  0.30827265  0.45624430  0.66274168    -0.83500
O23         O  0.22167230  0.72889988  0.63387749    -0.82900
C24         C  0.11536656  0.59125043  0.56192779     0.96400
O25         O  0.15073973  0.61695913  0.55615350    -0.72100
O26         O  0.17365586  0.69161330  0.54787578    -0.75600
Al27       Al  0.19017413  0.66347790  0.57553294     1.49000
C28         C  0.18144857  0.72656723  0.55352294     0.91700
O29         O  0.11332533  0.69254203  0.61212443    -0.81900
O30         O  0.14668255  0.63423934  0.66950368    -0.75400
Al31       Al  0.16705650  0.70888882  0.62246820     1.90100
O32         O  0.08691219  0.63145701  0.63218167    -0.74500
O33         O  0.15876945  0.59281690  0.62631881    -0.74300
O34         O  0.09943117  0.59067231  0.58835304    -0.80000
O35         O  0.21051361  0.63550526  0.59840283    -0.78200
O36         O  0.16099701  0.66263712  0.60845961    -1.14300
O37         O  0.23647619  0.71061119  0.58841847    -0.73500
C38         C  0.24703395  0.73124577  0.61374113     0.97200
C39         C  0.08354776  0.66009477  0.62131256     0.93600
Al40       Al  0.12603111  0.61650292  0.62746143     1.55600
O41         O  0.18277101  0.73740836  0.58224163    -0.78200
C42         C  0.19351212  0.60509115  0.61628326     0.97700
C43         C  0.15053920  0.66487389  0.68290005     0.92600
O44         O  0.15370943  0.69344971  0.66621060    -0.83500
O45         O  0.50343825  0.78069099  0.63645499    -0.82900
C46         C  0.48757880  0.89348161  0.55676083     0.96400
O47         O  0.47719123  0.85782137  0.55190660    -0.72100
O48         O  0.52498249  0.83025030  0.55008612    -0.75600
Al49       Al  0.47843308  0.81671332  0.57416619     1.49000
C50         C  0.54780092  0.81796150  0.55877879     0.91700
O51         O  0.58371148  0.89046547  0.61656211    -0.81900
O52         O  0.48942244  0.86162661  0.66799154    -0.75400
Al53       Al  0.54234346  0.83618781  0.62596850     1.90100
O54         O  0.54997062  0.91955346  0.63096559    -0.74500
O55         O  0.43931668  0.85047271  0.62231997    -0.74300
O56         O  0.49896919  0.90845411  0.58438841    -0.80000
O57         O  0.42821830  0.79906057  0.59310672    -0.78200
O58         O  0.50516901  0.84498933  0.60835585    -1.14300
O59         O  0.47368012  0.76907915  0.58934033    -0.73500
C60         C  0.47947924  0.75641119  0.61565035     0.97200
C61         C  0.58217717  0.92155397  0.62326847     0.93600
Al62       Al  0.49546452  0.88173729  0.62500355     1.55600
O63         O  0.55597878  0.81815947  0.58809638    -0.78200
C64         C  0.41588423  0.81692876  0.61046441     0.97700
C65         C  0.51270822  0.85433919  0.68364462     0.92600
O66         O  0.53826435  0.85004966  0.66897082    -0.83500
O67         O  0.22397538  0.48596628  0.37752494    -0.82900
C68         C  0.13159603  0.52208980  0.45457595     0.96400
O69         O  0.15971849  0.51512012  0.45791770    -0.72100
O70         O  0.20865447  0.48862466  0.44501729    -0.75600
Al71       Al  0.20028968  0.52908860  0.42705354     1.49000
C72         C  0.18946045  0.45125894  0.44373246     0.91700
O73         O  0.10901744  0.42317006  0.38012031    -0.81900
O74         O  0.13134964  0.50226211  0.33871517    -0.75400
Al75       Al  0.16616719  0.45792757  0.38040070     1.90100
O76         O  0.08706904  0.46349611  0.39220366    -0.74500
O77         O  0.17003268  0.56817082  0.37328953    -0.74300
O78         O  0.12172423  0.52774944  0.42661143    -0.80000
O79         O  0.20265774  0.57846021  0.41818435    -0.78200
O80         O  0.16536634  0.50002808  0.39678512    -1.14300
O81         O  0.24255860  0.54502683  0.39820898    -0.73500
C82         C  0.25011795  0.52241234  0.38187024     0.97200
C83         C  0.08110976  0.42891219  0.38817268     0.93600
Al84       Al  0.13047989  0.51402583  0.38366901     1.55600
O85         O  0.16501410  0.43412310  0.42136840    -0.78200
C86         C  0.19320115  0.59190888  0.39422778     0.97700
C87         C  0.14939531  0.48868753  0.32285828     0.92600
O88         O  0.16723309  0.47376975  0.33720635    -0.83500
O89         O  0.27614947  0.78925794  0.37408285    -0.82900
C90         C  0.41174561  0.89734092  0.44885460     0.96400
O91         O  0.38324887  0.86389290  0.45661165    -0.72100
O92         O  0.30865445  0.83836068  0.46015399    -0.75600
Al93       Al  0.33925081  0.82267191  0.43549631     1.49000
C94         C  0.27357321  0.82779384  0.45283656     0.91700
O95         O  0.31184234  0.89887019  0.39566059    -0.81900
O96         O  0.36883592  0.86523702  0.33903325    -0.75400
Al97       Al  0.29528554  0.84451510  0.38518260     1.90100
O98         O  0.37402112  0.92550654  0.37853922    -0.74500
O99         O  0.40802919  0.84872156  0.38184124    -0.74300
O100        O  0.41562472  0.90996486  0.42028222    -0.80000
O101        O  0.36999095  0.80328759  0.41694166    -0.78200
O102        O  0.34111756  0.85057208  0.40075149    -1.14300
O103        O  0.29419633  0.77497638  0.42056898    -0.73500
C104        C  0.27431963  0.76381748  0.39463334     0.97200
C105        C  0.34543736  0.92907272  0.38889883     0.93600
Al106      Al  0.38729590  0.88435608  0.38152450     1.55600
O107        O  0.26436572  0.82672193  0.42371986    -0.78200
C108        C  0.39780044  0.81649242  0.39670080     0.97700
C109        C  0.33854859  0.86173614  0.32523661     0.92600
O110        O  0.31085005  0.85931884  0.34185342    -0.83500
O111        O  0.50354313  0.72673062  0.37786099    -0.82900
C112        C  0.47775230  0.58541808  0.44267747     0.96400
O113        O  0.46025022  0.60477640  0.44577021    -0.72100
O114        O  0.50911667  0.67896638  0.46086456    -0.75600
Al115      Al  0.46884148  0.65395996  0.42952680     1.49000
C116        C  0.53633905  0.71486379  0.45867210     0.91700
O117        O  0.58272083  0.69761801  0.39681606    -0.81900
O118        O  0.49570832  0.63603480  0.33760194    -0.75400
Al119      Al  0.54109639  0.70921840  0.38806874     1.90100
O120        O  0.55364274  0.63751374  0.37595334    -0.74500
O121        O  0.44068093  0.58772135  0.37813284    -0.74300
O122        O  0.49999618  0.59151448  0.41882656    -0.80000
O123        O  0.42572019  0.62905094  0.40098132    -0.78200
O124        O  0.50294092  0.66004044  0.39891486    -1.14300
O125        O  0.46812429  0.70165672  0.42133063    -0.73500
C126        C  0.47692635  0.72382364  0.39690231     0.97200
C127        C  0.58424237  0.66784972  0.38658671     0.93600
Al128      Al  0.49811200  0.61701583  0.37927959     1.55600
O129        O  0.54896743  0.73045547  0.43112902    -0.78200
C130        C  0.41599423  0.59882507  0.38396188     0.97700
C131        C  0.51878022  0.66959601  0.32510587     0.92600
O132        O  0.54114568  0.69864818  0.34289033    -0.83500
O133        O  0.70186238  0.53788253  0.34046974    -0.82900
C134        C  0.59965486  0.48575026  0.44832174     0.96400
O135        O  0.58943076  0.48854931  0.41986706    -0.72100
O136        O  0.63772655  0.56097546  0.39859768    -0.75600
Al137      Al  0.62137449  0.51050082  0.38134252     1.49000
C138        C  0.66972279  0.59259482  0.39250358     0.91700
O139        O  0.73178637  0.56415964  0.42935562    -0.81900
O140        O  0.68288571  0.45535379  0.39485656    -0.75400
Al141      Al  0.71324925  0.54886900  0.38522221     1.90100
O142        O  0.70452461  0.50274836  0.44704843    -0.74500
O143        O  0.60842313  0.43083505  0.40464168    -0.74300
O144        O  0.63173703  0.48650429  0.45363333    -0.80000
O145        O  0.60058879  0.45946174  0.36192395    -0.78200
O146        O  0.66427750  0.51085995  0.39655497    -1.14300
O147        O  0.64289904  0.53171442  0.33972908    -0.73500
C148        C  0.67242930  0.53457393  0.32511300     0.97200
C149        C  0.73034763  0.53905245  0.44977275     0.93600
Al150      Al  0.65749399  0.47223755  0.42297694     1.55600
O151        O  0.70044742  0.59165278  0.38392674    -0.78200
C152        C  0.59380724  0.42841278  0.37692782     0.97700
C153        C  0.71817001  0.47531153  0.38510312     0.92600
O154        O  0.73524855  0.51314098  0.38370837    -0.83500
O155        O  0.47958042  0.31236570  0.67050937    -0.82900
C156        C  0.52709334  0.41106601  0.56037369     0.96400
O157        O  0.52492652  0.42241132  0.58839392    -0.72100
O158        O  0.45415503  0.37416715  0.61098874    -0.75600
Al159      Al  0.50503280  0.39212435  0.62782801     1.49000
C160        C  0.42330669  0.34185024  0.61790751     0.91700
O161        O  0.45329880  0.28181513  0.58242986    -0.81900
O162        O  0.56233291  0.33218862  0.61802071    -0.75400
Al163      Al  0.46847133  0.30011578  0.62625133     1.90100
O164        O  0.51440589  0.30717990  0.56561447    -0.74500
O165        O  0.58400093  0.40624911  0.60431528    -0.74300
O166        O  0.52786840  0.37939962  0.55623522    -0.80000
O167        O  0.55665152  0.41504630  0.64683875    -0.78200
O168        O  0.50552573  0.34916101  0.61418385    -1.14300
O169        O  0.48519996  0.37143788  0.66947224    -0.73500
C170        C  0.48196134  0.34188120  0.68493650     0.97200
C171        C  0.47779850  0.28418935  0.56145914     0.93600
Al172      Al  0.54389634  0.35568600  0.58820800     1.55600
O173        O  0.42521724  0.31163016  0.62710687    -0.78200
C174        C  0.58713725  0.42255152  0.63113779     0.97700
C175        C  0.54247791  0.29673232  0.62795680     0.92600
O176        O  0.50477021  0.27928701  0.62860162    -0.83500
O177        O  0.46680337  0.17640528  0.33433196    -0.82900
C178        C  0.54839090  0.15915193  0.43903166     0.96400
O179        O  0.53958980  0.13880982  0.41356288    -0.72100
O180        O  0.46535234  0.10190707  0.39809260    -0.75600
Al181      Al  0.51110259  0.13836479  0.37555668     1.49000
C182        C  0.43087984  0.09562192  0.39410820     0.91700
O183        O  0.45308025  0.18613922  0.42450551    -0.81900
O184        O  0.54914526  0.25695363  0.37192629    -0.75400
Al185      Al  0.46142352  0.18048550  0.37917231     1.90100
O186        O  0.51451273  0.23416614  0.43201674    -0.74500
O187        O  0.58766865  0.21922481  0.38364490    -0.74300
O188        O  0.54740975  0.19103413  0.44009574    -0.80000
O189        O  0.55849744  0.16818019  0.35148717    -0.78200
O190        O  0.50636590  0.18006225  0.38674556    -1.14300
O191        O  0.48389951  0.13057626  0.33520750    -0.73500
C192        C  0.47435958  0.15271771  0.31967706     0.97200
C193        C  0.47864659  0.21558226  0.44075092     0.93600
Al194      Al  0.54637203  0.22184222  0.40529876     1.55600
O195        O  0.42551784  0.12310533  0.38342032    -0.78200
C196        C  0.58925864  0.19870711  0.36105184     0.97700
C197        C  0.52172236  0.26418758  0.36579873     0.92600
O198        O  0.48616362  0.23789651  0.37197515    -0.83500
O199        O  0.83696112  0.53957175  0.67357165    -0.82900
C200        C  0.85160510  0.45402336  0.57092214     0.96400
O201        O  0.87610766  0.46951996  0.59362300    -0.72100
O202        O  0.91220640  0.54315934  0.61028484    -0.75600
Al203      Al  0.87589027  0.49608241  0.63200542     1.49000
C204        C  0.91892922  0.57732080  0.61681904     0.91700
O205        O  0.83258174  0.55649533  0.58322829    -0.81900
O206        O  0.75616210  0.46245131  0.63496616    -0.75400
Al207      Al  0.83513801  0.54698858  0.62860379     1.90100
O208        O  0.78444149  0.49493532  0.57323048    -0.74500
O209        O  0.79020127  0.42009915  0.62951486    -0.74300
O210        O  0.81862451  0.45226296  0.57135375    -0.80000
O211        O  0.84722952  0.44684085  0.65456785    -0.78200
O212        O  0.83408135  0.50088954  0.62132885    -1.14300
O213        O  0.88227409  0.52153095  0.67312776    -0.73500
C214        C  0.86090980  0.53206035  0.68836817     0.97200
C215        C  0.80585798  0.53122261  0.56463207     0.93600
Al216      Al  0.79097294  0.46096855  0.60390725     1.55600
O217        O  0.89173910  0.58206153  0.62780058    -0.78200
C218        C  0.81393346  0.41713058  0.64834411     0.97700
C219        C  0.75076741  0.49141722  0.63809273     0.92600
O220        O  0.77887606  0.52607314  0.63233199    -0.83500
O221        O  0.83123719  0.30023178  0.33563677    -0.82900
C222        C  0.85116675  0.37660134  0.45508682     0.96400
O223        O  0.86610835  0.39482343  0.42872028    -0.72100
O224        O  0.90703400  0.36817242  0.39863651    -0.75600
Al225      Al  0.86480611  0.37499931  0.38543670     1.49000
C226        C  0.91480291  0.34175777  0.39048468     0.91700
O227        O  0.83121115  0.26223262  0.42088300    -0.81900
O228        O  0.75312242  0.29078152  0.38813956    -0.75400
Al229      Al  0.83093442  0.28354350  0.37849273     1.90100
O230        O  0.78041177  0.26567499  0.43797254    -0.74500
O231        O  0.78716698  0.36202742  0.41147526    -0.74300
O232        O  0.82464521  0.34022918  0.45495276    -0.80000
O233        O  0.82652363  0.38875750  0.37047631    -0.78200
O234        O  0.82884747  0.32479413  0.39471323    -1.14300
O235        O  0.87011858  0.36481020  0.34110459    -0.73500
C236        C  0.85110000  0.33458382  0.32340192     0.97200
C237        C  0.80448133  0.25352400  0.44164660     0.93600
Al238      Al  0.78966144  0.31535593  0.42091286     1.55600
O239        O  0.88808371  0.30881708  0.37932719    -0.78200
C240        C  0.79784438  0.38458605  0.38718345     0.97700
C241        C  0.74785576  0.26120423  0.37206641     0.92600
O242        O  0.77339955  0.25010675  0.37264240    -0.83500
O243        O  0.70621621  0.17457810  0.67076839    -0.82900
C244        C  0.62032859  0.15036146  0.55502141     0.96400
O245        O  0.60565419  0.13530112  0.58228446    -0.72100
O246        O  0.63551462  0.09450446  0.61044191    -0.75600
Al247      Al  0.62914790  0.13755131  0.62394792     1.49000
C248        C  0.66267511  0.08784935  0.61899199     0.91700
O249        O  0.73988674  0.17176728  0.58499056    -0.81900
O250        O  0.71392976  0.25161939  0.61678727    -0.75400
Al251      Al  0.72054807  0.17308555  0.62757950     1.90100
O252        O  0.73258052  0.22011620  0.56548288    -0.74500
O253        O  0.64093311  0.21659077  0.59844233    -0.74300
O254        O  0.65641145  0.17683636  0.55226648    -0.80000
O255        O  0.61631869  0.17600803  0.63953763    -0.78200
O256        O  0.67828382  0.17414995  0.61228179    -1.14300
O257        O  0.64235513  0.13312670  0.66778342    -0.73500
C258        C  0.67316526  0.15404902  0.68441992     0.97200
C259        C  0.74690990  0.19761349  0.56334645     0.93600
Al260      Al  0.68552102  0.21297486  0.58549020     1.55600
O261        O  0.69572888  0.11580407  0.62874933    -0.78200
C262        C  0.61976646  0.20517537  0.62339205     0.97700
C263        C  0.74393633  0.25665264  0.63217441     0.92600
O264        O  0.75438001  0.23066630  0.63132858    -0.83500
O265        O  0.73335838  0.52963536  0.14413867    -0.82900
C266        C  0.60556997  0.49313626  0.05920375     0.96400
O267        O  0.62875702  0.47951047  0.05873850    -0.72100
O268        O  0.70298298  0.52698035  0.05558642    -0.75600
Al269      Al  0.67135949  0.48543023  0.08421084     1.49000
C270        C  0.73498124  0.55840054  0.06099024     0.91700
O271        O  0.69283383  0.59535254  0.11275114    -0.81900
O272        O  0.63313994  0.50121161  0.17061985    -0.75400
Al273      Al  0.71094350  0.56008854  0.12761498     1.90100
O274        O  0.63287638  0.55957287  0.13276706    -0.74500
O275        O  0.59335978  0.44856734  0.12427946    -0.74300
O276        O  0.60119529  0.50868331  0.08438806    -0.80000
O277        O  0.63962449  0.43761260  0.10740199    -0.78200
O278        O  0.66727811  0.51684273  0.11278380    -1.14300
O279        O  0.71518629  0.48614468  0.10479971    -0.73500
C280        C  0.73461939  0.50150168  0.13027623     0.97200
C281        C  0.66032196  0.59205993  0.12151067     0.93600
Al282      Al  0.61942260  0.50553987  0.12694124     1.55600
O283        O  0.74263902  0.57295174  0.08890846    -0.78200
C284        C  0.60526214  0.42481989  0.11797000     0.97700
C285        C  0.66255286  0.52845662  0.18561785     0.92600
O286        O  0.69054212  0.55690456  0.17019892    -0.83500
O287        O  0.48619850  0.28236893  0.87001809    -0.82900
C288        C  0.53493392  0.42141686  0.94518911     0.96400
O289        O  0.54495775  0.39549681  0.94788564    -0.72100
O290        O  0.48558063  0.32300045  0.95741020    -0.75600
Al291      Al  0.52837683  0.34582828  0.92797069     1.49000
C292        C  0.45508312  0.28955526  0.95248529     0.91700
O293        O  0.42220366  0.32655496  0.89501472    -0.81900
O294        O  0.51441042  0.38103210  0.83817593    -0.75400
Al295      Al  0.45600793  0.30653234  0.88331566     1.90100
O296        O  0.46036174  0.38777789  0.87655853    -0.74500
O297        O  0.57034333  0.41813701  0.88135881    -0.74300
O298        O  0.51554866  0.42199179  0.92105163    -0.80000
O299        O  0.57349221  0.36765812  0.90149383    -0.78200
O300        O  0.49927565  0.35036283  0.89735225    -1.14300
O301        O  0.51941995  0.29515692  0.91537631    -0.73500
C302        C  0.50826158  0.27671886  0.88909117     0.97200
C303        C  0.42738636  0.36039305  0.88731357     0.93600
Al304      Al  0.51372903  0.39809181  0.88048789     1.55600
O305        O  0.44295258  0.27846194  0.92401850    -0.78200
C306        C  0.59012944  0.40138021  0.88788388     0.97700
C307        C  0.48667459  0.35188264  0.82381212     0.92600
O308        O  0.45905886  0.32395396  0.83970263    -0.83500
O309        O  0.72717648  0.23316070  0.86621304    -0.82900
C310        C  0.59870572  0.13076143  0.94939946     0.96400
O311        O  0.62045881  0.16811419  0.95080354    -0.72100
O312        O  0.69617631  0.19730783  0.95461465    -0.75600
Al313      Al  0.66380759  0.20726243  0.92638413     1.49000
C314        C  0.73035725  0.20429936  0.94777117     0.91700
O315        O  0.69344834  0.12641261  0.89495318    -0.81900
O316        O  0.62799813  0.15231312  0.83813972    -0.75400
Al317      Al  0.70765462  0.17936642  0.88127273     1.90100
O318        O  0.63212688  0.09731804  0.87683416    -0.74500
O319        O  0.58764834  0.16369845  0.88386359    -0.74300
O320        O  0.59688557  0.11226677  0.92399871    -0.80000
O321        O  0.63144446  0.22212341  0.90253804    -0.78200
O322        O  0.66224655  0.17406110  0.89651709    -1.14300
O323        O  0.70779881  0.25320529  0.90817534    -0.73500
C324        C  0.72844493  0.26085933  0.88299873     0.97200
C325        C  0.66165729  0.09541550  0.88672042     0.93600
Al326      Al  0.61539048  0.13494144  0.88194188     1.55600
O327        O  0.73866984  0.19982031  0.91949889    -0.78200
C328        C  0.59822084  0.19936202  0.88991686     0.97700
C329        C  0.65818746  0.15667030  0.82347214     0.92600
O330        O  0.68816182  0.16164412  0.83901505    -0.83500
O331        O  0.78597671  0.51463528  0.87505509    -0.82900
C332        C  0.89744711  0.49876357  0.95332145     0.96400
O333        O  0.86086796  0.48403839  0.95725507    -0.72100
O334        O  0.83393710  0.53299219  0.96242947    -0.75600
Al335      Al  0.82048675  0.48805203  0.93598611     1.49000
C336        C  0.82320790  0.55770343  0.95514616     0.91700
O337        O  0.89281431  0.59669743  0.89657725    -0.81900
O338        O  0.86741615  0.50385781  0.84391465    -0.75400
Al339      Al  0.83999831  0.55457196  0.88661443     1.90100
O340        O  0.92365304  0.56527851  0.88058627    -0.74500
O341        O  0.85760881  0.45250172  0.88873913    -0.74300
O342        O  0.91356179  0.51450195  0.92684845    -0.80000
O343        O  0.80302380  0.44002275  0.91319309    -0.78200
O344        O  0.84962072  0.51758134  0.90314855    -1.14300
O345        O  0.77287997  0.48502608  0.92223135    -0.73500
C346        C  0.76125044  0.48947342  0.89502793     0.97200
C347        C  0.92424921  0.59682897  0.88883090     0.93600
Al348      Al  0.88733332  0.50983339  0.88648544     1.55600
O349        O  0.82188257  0.56623694  0.92592460    -0.78200
C350        C  0.82202863  0.42851483  0.89637360     0.97700
C351        C  0.86164316  0.52832473  0.82839827     0.92600
O352        O  0.85524068  0.55254370  0.84334983    -0.83500
O353        O  0.49064641  0.22813214  0.13374915    -0.82900
C354        C  0.51406333  0.12125827  0.05545263     0.96400
O355        O  0.52287588  0.15648954  0.04962391    -0.72100
O356        O  0.47250079  0.18133507  0.04637459    -0.75600
Al357      Al  0.51884090  0.19643881  0.07134455     1.49000
C358        C  0.44800528  0.19170825  0.05413762     0.91700
O359        O  0.41404473  0.12078273  0.11065834    -0.81900
O360        O  0.50771019  0.15110574  0.16464850    -0.75400
Al361      Al  0.45347806  0.17388940  0.12170902     1.90100
O362        O  0.44765047  0.09200233  0.12731053    -0.74500
O363        O  0.55983335  0.16409603  0.12010036    -0.74300
O364        O  0.50061551  0.10544688  0.08251922    -0.80000
O365        O  0.56839962  0.21528021  0.09138450    -0.78200
O366        O  0.49199778  0.16704447  0.10498444    -1.14300
O367        O  0.52113098  0.24332442  0.08681244    -0.73500
C368        C  0.51338955  0.25394406  0.11325578     0.97200
C369        C  0.41571832  0.08991004  0.11780130     0.93600
Al370      Al  0.50276221  0.13121926  0.12222310     1.55600
O371        O  0.44042060  0.19276097  0.08340057    -0.78200
C372        C  0.58238069  0.19865414  0.10890983     0.97700
C373        C  0.48199357  0.15457283  0.17986453     0.92600
O374        O  0.45588206  0.15778425  0.16463382    -0.83500
O375        O  0.77843487  0.29115353  0.13273509    -0.82900
C376        C  0.89291108  0.43257387  0.06698472     0.96400
O377        O  0.85573275  0.41447518  0.06416853    -0.72100
O378        O  0.82630062  0.33969204  0.04935070    -0.75600
Al379      Al  0.81410327  0.36581787  0.08153338     1.49000
C380        C  0.81823644  0.30404303  0.05096948     0.91700
O381        O  0.88585723  0.32286871  0.10934599    -0.81900
O382        O  0.86118733  0.38223143  0.17195499    -0.75400
Al383      Al  0.83310027  0.30999717  0.12071780     1.90100
O384        O  0.91748215  0.38090479  0.13351600    -0.74500
O385        O  0.85573047  0.43239125  0.13249674    -0.74300
O386        O  0.90898549  0.42677034  0.09118281    -0.80000
O387        O  0.79819423  0.39210986  0.11060109    -0.78200
O388        O  0.84321272  0.35919127  0.11098779    -1.14300
O389        O  0.76562939  0.31875351  0.09176768    -0.73500
C390        C  0.75365414  0.29449048  0.11506476     0.97200
C391        C  0.91759923  0.35204283  0.11988156     0.93600
Al392      Al  0.88245540  0.40183025  0.13065292     1.55600
O393        O  0.81689540  0.28843164  0.07813545    -0.78200
C394        C  0.81995784  0.42229662  0.12733386     0.97700
C395        C  0.85286408  0.34894672  0.18382253     0.92600
O396        O  0.84673858  0.32061439  0.16551019    -0.83500
O397        O  0.29601286  0.47723211  0.83112879    -0.82900
C398        C  0.39063938  0.55876705  0.93888869     0.96400
O399        O  0.40301932  0.55080365  0.91354010    -0.72100
O400        O  0.36779200  0.47573344  0.89698341    -0.75600
Al401      Al  0.37624560  0.52186555  0.87504039     1.49000
C402        C  0.34135231  0.44093323  0.88995897     0.91700
O403        O  0.26941533  0.45509761  0.92019622    -0.81900
O404        O  0.29269291  0.55434605  0.87338710    -0.75400
Al405      Al  0.28464407  0.46800274  0.87572207     1.90100
O406        O  0.27905459  0.51433688  0.93217257    -0.74500
O407        O  0.36768440  0.59498659  0.88562552    -0.74300
O408        O  0.35572086  0.55218146  0.94085810    -0.80000
O409        O  0.39211149  0.56997313  0.85197727    -0.78200
O410        O  0.32852981  0.51368225  0.88571212    -1.14300
O411        O  0.35906152  0.49538957  0.83391007    -0.73500
C412        C  0.32785856  0.48479565  0.81741437     0.97200
C413        C  0.26462628  0.47777124  0.93902350     0.93600
Al414      Al  0.32400962  0.55079174  0.90618098     1.55600
O415        O  0.30862356  0.43452769  0.87832797    -0.78200
C416        C  0.39126090  0.59940146  0.86326144     0.97700
C417        C  0.25879425  0.52662400  0.86581896     0.92600
O418        O  0.25005670  0.49070102  0.86989940    -0.83500
O419        O  0.16671492  0.47563584  0.16728902    -0.82900
C420        C  0.12564617  0.53388350  0.05729684     0.96400
O421        O  0.11369379  0.53310626  0.08573702    -0.72100
O422        O  0.08267976  0.46132925  0.10932206    -0.75600
Al423      Al  0.12118017  0.51098112  0.12510903     1.49000
C424        C  0.07990503  0.42794773  0.11352255     0.91700
O425        O  0.16805223  0.44757589  0.07878284    -0.81900
O426        O  0.23733381  0.55659705  0.11153252    -0.75400
Al427      Al  0.16662869  0.46433028  0.12250698     1.90100
O428        O  0.20819477  0.50741744  0.06021078    -0.74500
O429        O  0.19005503  0.58409380  0.09780424    -0.74300
O430        O  0.15382441  0.52763326  0.05193562    -0.80000
O431        O  0.15655732  0.56268752  0.14270756    -0.78200
O432        O  0.16065100  0.50499720  0.11026069    -1.14300
O433        O  0.11962724  0.49024426  0.16732543    -0.73500
C434        C  0.14288039  0.48241697  0.18252344     0.97200
C435        C  0.19219864  0.47035941  0.05758305     0.93600
Al436      Al  0.19443771  0.54077568  0.08270672     1.55600
O437        O  0.10965165  0.42526678  0.12250905    -0.78200
C438        C  0.18159824  0.59090538  0.12535625     0.97700
C439        C  0.24859011  0.53394066  0.12337210     0.92600
O440        O  0.22488056  0.49638742  0.12498697    -0.83500
O441        O  0.17255922  0.71184589  0.83601656    -0.82900
C442        C  0.12550369  0.61143371  0.94503185     0.96400
O443        O  0.11089035  0.60067155  0.91711375    -0.72100
O444        O  0.08581482  0.64776906  0.89639052    -0.75600
Al445      Al  0.11933241  0.63191587  0.87818629     1.49000
C446        C  0.08555959  0.67915089  0.88934741     0.91700
O447        O  0.17372116  0.74123856  0.92385711    -0.81900
O448        O  0.23572691  0.69635021  0.88774320    -0.75400
Al449      Al  0.17211431  0.72405498  0.88012680     1.90100
O450        O  0.21128016  0.71818673  0.94181625    -0.74500
O451        O  0.18805995  0.62202746  0.89950026    -0.74300
O452        O  0.15692699  0.64419693  0.94918844    -0.80000
O453        O  0.14908726  0.61136300  0.85810808    -0.78200
O454        O  0.16208354  0.67563057  0.89211477    -1.14300
O455        O  0.11850443  0.65333239  0.83660308    -0.73500
C456        C  0.14622903  0.68193612  0.82112921     0.97200
C457        C  0.19621017  0.73997144  0.94534428     0.93600
Al458      Al  0.19537991  0.67072076  0.91751264     1.55600
O459        O  0.11639756  0.70963217  0.87848981    -0.78200
C460        C  0.17404967  0.60559075  0.87272415     0.97700
C461        C  0.25087027  0.73210986  0.87906992     0.92600
O462        O  0.22994361  0.74858525  0.87893120    -0.83500
O463        O  0.53569904  0.84231421  0.83801814    -0.82900
C464        C  0.48009062  0.87423848  0.95281083     0.96400
O465        O  0.47823736  0.88613252  0.92467576    -0.72100
O466        O  0.54669683  0.92397638  0.89571149    -0.75600
Al467      Al  0.49730587  0.88103969  0.88350138     1.49000
C468        C  0.58076466  0.93003194  0.88949398     0.91700
O469        O  0.57433822  0.84559305  0.92365063    -0.81900
O470        O  0.46606161  0.76794563  0.89587866    -0.75400
Al471      Al  0.55222763  0.84453145  0.88140387     1.90100
O472        O  0.51828808  0.80072862  0.94505972    -0.74500
O473        O  0.43055364  0.80584226  0.91328551    -0.74300
O474        O  0.48924743  0.84766788  0.95713284    -0.80000
O475        O  0.44552548  0.84187343  0.86942753    -0.78200
O476        O  0.50991070  0.84510745  0.89682322    -1.14300
O477        O  0.51311449  0.88327791  0.83959695    -0.73500
C478        C  0.52209207  0.86153996  0.82367792     0.97200
C479        C  0.55550261  0.82022889  0.94553667     0.93600
Al480      Al  0.47895054  0.80868502  0.92545212     1.55600
O481        O  0.58598432  0.90202489  0.88032652    -0.78200
C482        C  0.42010605  0.81480229  0.88731596     0.97700
C483        C  0.48933898  0.76111531  0.88003481     0.92600
O484        O  0.52603566  0.78673542  0.87840160    -0.83500
O485        O  0.30104903  0.84153239  0.17148149    -0.82900
C486        C  0.39543989  0.87906082  0.05998409     0.96400
O487        O  0.40765135  0.89526806  0.08726481    -0.72100
O488        O  0.36472777  0.92441141  0.10817415    -0.75600
Al489      Al  0.37945113  0.89014776  0.12692508     1.49000
C490        C  0.33455568  0.92652364  0.11487092     0.91700
O491        O  0.26874347  0.83692717  0.08362714    -0.81900
O492        O  0.31235239  0.77388700  0.12271262    -0.75400
Al493      Al  0.28750136  0.84006545  0.12731517     1.90100
O494        O  0.28753540  0.79530558  0.06794092    -0.74500
O495        O  0.38589729  0.81912128  0.10709793    -0.74300
O496        O  0.36165375  0.84858795  0.05690540    -0.80000
O497        O  0.39972096  0.86003060  0.14733455    -0.78200
O498        O  0.33447052  0.84768585  0.11483538    -1.14300
O499        O  0.36092903  0.89362915  0.16892781    -0.73500
C500        C  0.33206358  0.86779780  0.18536865     0.97200
C501        C  0.26659650  0.81128372  0.06386319     0.93600
Al502      Al  0.33651615  0.81203801  0.09062403     1.55600
O503        O  0.30385872  0.89674286  0.12672453    -0.78200
C504        C  0.40495372  0.83495046  0.13262480     0.97700
C505        C  0.27697996  0.75956065  0.13097433     0.92600
O506        O  0.26154501  0.78158181  0.13074377    -0.83500
O507        O  0.53447998  0.71741102  0.17259150    -0.82900
C508        C  0.47248658  0.63928549  0.05396007     0.96400
O509        O  0.47583551  0.62218039  0.07891714    -0.72100
O510        O  0.54597765  0.65245905  0.10642400    -0.75600
Al511      Al  0.49620894  0.64225871  0.12184809     1.49000
C512        C  0.57905266  0.67744061  0.11792705     0.91700
O513        O  0.57178361  0.75262449  0.08705634    -0.81900
O514        O  0.46767414  0.72877641  0.12385626    -0.75400
Al515      Al  0.55149455  0.73374295  0.12972039     1.90100
O516        O  0.51660039  0.74860671  0.06979184    -0.74500
O517        O  0.42642059  0.65564587  0.10459638    -0.74300
O518        O  0.47846296  0.67413012  0.05559715    -0.80000
O519        O  0.44401211  0.62349178  0.13788191    -0.78200
O520        O  0.50727187  0.69194750  0.11410865    -1.07100
O521        O  0.51372192  0.65350813  0.16650039    -0.73500
C522        C  0.52294903  0.68322314  0.18463949     0.97200
C523        C  0.55289459  0.75976509  0.06571228     0.93600
Al524      Al  0.47499931  0.70111930  0.09057935     1.55600
O525        O  0.58354072  0.70858185  0.13114757    -0.78200
C526        C  0.41741856  0.62798977  0.12477760     0.97700
C527        C  0.49450912  0.76143222  0.13463858     0.92600
O528        O  0.53040694  0.77005388  0.13331786    -0.83500
C529        C  0.47228587  0.84415421  0.13011110    -0.10300
C530        C  0.43435140  0.82455336  0.14394535     0.05900
C531        C  0.42265696  0.79014672  0.16268508    -0.04100
C532        C  0.44650737  0.77287481  0.16364600    -0.08500
C533        C  0.48202209  0.78936422  0.14597424     0.05000
C534        C  0.49639219  0.82700731  0.13124456    -0.03500
Br535      Br  0.54543335  0.85311260  0.10799009    -0.03200
H536        H  0.48174471  0.87103638  0.11602685     0.08900
H537        H  0.43523364  0.74418270  0.17543858     0.06900
Br538      Br  0.37244510  0.76332582  0.18427992    -0.03700
C539        C  0.56525017  0.77157790  0.97654238    -0.10300
C540        C  0.57483089  0.81132418  0.97257085     0.05900
C541        C  0.58973773  0.83668903  0.99937282    -0.04100
C542        C  0.58632598  0.82048905  0.03048000    -0.08500
C543        C  0.57142498  0.77947740  0.03471920     0.05000
C544        C  0.56504730  0.75607677  0.00716537    -0.03500
Br545      Br  0.55378045  0.70223307  0.01026134    -0.03200
H546        H  0.55488441  0.75169517  0.95611302     0.08900
H547        H  0.59321862  0.83947671  0.05130621     0.06900
Br548      Br  0.61324670  0.89293733  0.99441861    -0.03700
C549        C  0.45934380  0.89414505  0.03744631    -0.10300
C550        C  0.42253353  0.89127922  0.03246815     0.05900
C551        C  0.40906536  0.89024327  0.00077434    -0.04100
C552        C  0.43101254  0.88921056  0.97486721    -0.08500
C553        C  0.46539154  0.88710090  0.98003454     0.05000
C554        C  0.48027609  0.89096840  0.01161126    -0.03500
Br555      Br  0.52699438  0.88897628  0.02144646    -0.03200
H556        H  0.46983794  0.89456936  0.06174613     0.08900
H557        H  0.41901937  0.88617344  0.95074788     0.06900
Br558      Br  0.35935626  0.88652582  0.99141967    -0.03700
C559        C  0.19002351  0.74226227  0.00449157    -0.10300
C560        C  0.20565689  0.76316921  0.97550318     0.05900
C561        C  0.23647114  0.80324789  0.97689545    -0.04100
C562        C  0.25281766  0.82075163  0.00682900    -0.08500
C563        C  0.23975049  0.79850570  0.03552287     0.05000
C564        C  0.20672343  0.75961089  0.03426736    -0.03500
Br565      Br  0.18522777  0.72820801  0.07259202    -0.03200
H566        H  0.16649288  0.71136112  0.00385347     0.08900
H567        H  0.27785642  0.85077367  0.00748523     0.06900
Br568      Br  0.26058892  0.83332179  0.93845070    -0.03700
C569        C  0.35906532  0.81421365  0.86796486    -0.10300
C570        C  0.37769080  0.79335190  0.87888334     0.05900
C571        C  0.35445656  0.75207986  0.88457623    -0.04100
C572        C  0.31391296  0.73289861  0.88031174    -0.08500
C573        C  0.29430908  0.75397161  0.87316864     0.05000
C574        C  0.31745788  0.79500980  0.86559001    -0.03500
Br575      Br  0.29454246  0.82651267  0.85285610    -0.03200
H576        H  0.37666134  0.84595803  0.86326677     0.08900
H577        H  0.29746451  0.70120509  0.88544112     0.06900
Br578      Br  0.37443691  0.71934336  0.90102398    -0.03700
C579        C  0.11241083  0.60333434  0.00312358    -0.10300
C580        C  0.10886644  0.58516932  0.97329332     0.05900
C581        C  0.09989667  0.54524926  0.97263538    -0.04100
C582        C  0.10165578  0.52691924  0.00119043    -0.08500
C583        C  0.11058145  0.54726326  0.03048721     0.05000
C584        C  0.11296799  0.58459144  0.03169929    -0.03500
Br585      Br  0.12338248  0.61435917  0.07067101    -0.03200
H586        H  0.11848636  0.63378395  0.00399958     0.08900
H587        H  0.09843574  0.49760029  0.00024077     0.06900
Br588      Br  0.08961709  0.51586288  0.93354581    -0.03700
C589        C  0.21384406  0.69753734  0.14750271    -0.10300
C590        C  0.25368103  0.71601663  0.13717993     0.05900
C591        C  0.26944065  0.69143403  0.12873613    -0.04100
C592        C  0.24514297  0.65067455  0.12856527    -0.08500
C593        C  0.20506771  0.63231422  0.13625988     0.05000
C594        C  0.18937487  0.65570626  0.14707373    -0.03500
Br595      Br  0.13454465  0.63248865  0.15816159    -0.03200
H596        H  0.20114279  0.71556615  0.15413033     0.08900
H597        H  0.25727164  0.63299712  0.11958595     0.06900
Br598      Br  0.32191603  0.70856902  0.11245072    -0.03700
C599        C  0.35239360  0.61206354  0.14815660    -0.10300
C600        C  0.37498361  0.59948773  0.13121466     0.05900
C601        C  0.35551989  0.56151760  0.11679192    -0.04100
C602        C  0.31395403  0.53824253  0.11729141    -0.08500
C603        C  0.29115176  0.55220831  0.13209973     0.05000
C604        C  0.31090970  0.58842054  0.14919740    -0.03500
Br605      Br  0.28242631  0.60638757  0.17477048    -0.03200
H606        H  0.36695461  0.64084106  0.15982554     0.08900
H607        H  0.29939985  0.51065901  0.10389097     0.06900
Br608      Br  0.38405593  0.54217902  0.09284143    -0.03700
C609        C  0.20243584  0.45401359  0.97018854    -0.10300
C610        C  0.24179954  0.46250630  0.96939899     0.05900
C611        C  0.26088614  0.46431315  0.99876324    -0.04100
C612        C  0.24173590  0.46101599  0.02819004    -0.08500
C613        C  0.20347165  0.45588730  0.02894544     0.05000
C614        C  0.18334936  0.45080679  0.99954378    -0.03500
Br615      Br  0.13184604  0.44504583  0.99805520    -0.03200
H616        H  0.18747984  0.45275498  0.94801973     0.08900
H617        H  0.25816391  0.46613570  0.05046325     0.06900
Br618      Br  0.31469440  0.47581154  0.99978038    -0.03700
C619        C  0.43214430  0.56193764  0.98629545    -0.10300
C620        C  0.41785190  0.58044527  0.96538773     0.05900
C621        C  0.42651577  0.61939566  0.97180036    -0.04100
C622        C  0.44642163  0.63808439  0.99970445    -0.08500
C623        C  0.45810196  0.61893172  0.02244229     0.05000
C624        C  0.45241812  0.58099324  0.01480306    -0.03500
Br625      Br  0.47167696  0.55406150  0.04168919    -0.03200
H626        H  0.42621518  0.53216689  0.98110672     0.08900
H627        H  0.45110833  0.66758386  0.00405065     0.06900
Br628      Br  0.41082087  0.64889192  0.94418920    -0.03700
C629        C  0.43535721  0.70813146  0.84844941    -0.10300
C630        C  0.47197181  0.72211324  0.86404215     0.05900
C631        C  0.48571020  0.69547228  0.86997611    -0.04100
C632        C  0.46027391  0.65464500  0.86464093    -0.08500
C633        C  0.42120999  0.64021717  0.85394676     0.05000
C634        C  0.40968398  0.66742419  0.84392447    -0.03500
Br635      Br  0.35758590  0.65001432  0.82752302    -0.03200
H636        H  0.42503501  0.72862797  0.84271273     0.08900
H637        H  0.46939357  0.63384186  0.87256566     0.06900
Br638      Br  0.53593130  0.71218785  0.89001986    -0.03700
C639        C  0.24366240  0.57522666  0.83998771    -0.10300
C640        C  0.22940847  0.53816686  0.85563758     0.05900
C641        C  0.19067689  0.51917506  0.86840759    -0.04100
C642        C  0.17045209  0.54026376  0.87057080    -0.08500
C643        C  0.18761755  0.57957332  0.85934523     0.05000
C644        C  0.22301631  0.59590048  0.84166410    -0.03500
Br645      Br  0.24585508  0.64780931  0.82220333    -0.03200
H646        H  0.27259648  0.58967369  0.82873715     0.08900
H647        H  0.14241738  0.52685687  0.88312617     0.06900
Br648      Br  0.16553933  0.46663572  0.88652413    -0.03700
C649        C  0.97539248  0.37012742  0.08531008    -0.10300
C650        C  0.95639832  0.35504473  0.11487461     0.05900
C651        C  0.97870798  0.35358671  0.14107215    -0.04100
C652        C  0.02017617  0.37242938  0.13877486    -0.08500
C653        C  0.03967642  0.39283488  0.11049571     0.05000
C654        C  0.01668363  0.38878934  0.08290801    -0.03500
Br655      Br  0.04066130  0.41222962  0.04234995    -0.03200
H656        H  0.95850739  0.37075496  0.06480379     0.08900
H657        H  0.03727833  0.37492227  0.16018232     0.06900
Br658      Br  0.95381524  0.32896458  0.18107281    -0.03700
C659        C  0.37780023  0.03048745  0.08472726    -0.10300
C660        C  0.38105427  0.04990320  0.11377931     0.05900
C661        C  0.35880236  0.02752159  0.14059498    -0.04100
C662        C  0.33734067  0.98572934  0.13913041    -0.08500
C663        C  0.33859218  0.96614623  0.11126002     0.05000
C664        C  0.35686786  0.98892118  0.08331628    -0.03500
Br665      Br  0.35916648  0.96455563  0.04400717    -0.03200
H666        H  0.39503895  0.04747516  0.06402233     0.08900
H667        H  0.32385418  0.96873689  0.16091303     0.06900
Br668      Br  0.36136325  0.05286368  0.18069841    -0.03700
C669        C  0.64472884  0.26289803  0.11266029    -0.10300
C670        C  0.62579938  0.22144775  0.11606518     0.05900
C671        C  0.64937681  0.20428948  0.12376119    -0.04100
C672        C  0.69109283  0.22873666  0.12599715    -0.08500
C673        C  0.70990243  0.27006487  0.12000793     0.05000
C674        C  0.68571398  0.28681866  0.11388991    -0.03500
Br675      Br  0.70555197  0.34205697  0.10484494    -0.03200
H676        H  0.62750188  0.27707622  0.10759409     0.08900
H677        H  0.70892173  0.21506887  0.13031823     0.06900
Br678      Br  0.62709986  0.14785692  0.12866433    -0.03700
C679        C  0.98377198  0.64426505  0.91911593    -0.10300
C680        C  0.96339831  0.63333889  0.88964791     0.05900
C681        C  0.98488088  0.64859732  0.86079204    -0.04100
C682        C  0.02637502  0.67067449  0.86151861    -0.08500
C683        C  0.04684902  0.67679985  0.89070709     0.05000
C684        C  0.02531295  0.66573569  0.91977720    -0.03500
Br685      Br  0.05172473  0.67449008  0.96056195    -0.03200
H686        H  0.96765929  0.63223667  0.94144775     0.08900
H687        H  0.04252503  0.67838840  0.83895365     0.06900
Br688      Br  0.95892733  0.63456659  0.81960604    -0.03700
C689        C  0.91779537  0.49706156  0.03942871    -0.10300
C690        C  0.91627395  0.46032964  0.04087742     0.05900
C691        C  0.92379220  0.44539224  0.01265609    -0.04100
C692        C  0.92502272  0.46305776  0.98273789    -0.08500
C693        C  0.91972463  0.49608081  0.98094894     0.05000
C694        C  0.92018921  0.51532077  0.00966151    -0.03500
Br695      Br  0.91721982  0.56299612  0.00879452    -0.03200
H696        H  0.91257664  0.50923473  0.06097198     0.08900
H697        H  0.92498704  0.44801898  0.96086388     0.06900
Br698      Br  0.92624419  0.39747051  0.01348867    -0.03700
C699        C  0.64420038  0.03527708  0.91840447    -0.10300
C700        C  0.65658486  0.05541568  0.88883902     0.05900
C701        C  0.65046642  0.03331587  0.86047447    -0.04100
C702        C  0.63000107  0.99160072  0.86178507    -0.08500
C703        C  0.61387388  0.97146235  0.89091807     0.05000
C704        C  0.62215994  0.99361833  0.91951671    -0.03500
Br705      Br  0.59945266  0.96867222  0.95995362    -0.03200
H706        H  0.64749192  0.05189804  0.94018554     0.08900
H707        H  0.62288659  0.97499651  0.83950117     0.06900
Br708      Br  0.66415719  0.05879771  0.81891437    -0.03700
C709        C  0.56666492  0.11194752  0.03565767    -0.10300
C710        C  0.52729952  0.10250785  0.03187925     0.05900
C711        C  0.50933680  0.09057023  0.00136047    -0.04100
C712        C  0.53227965  0.09292139  0.97456726    -0.08500
C713        C  0.57350845  0.11007018  0.97762765     0.05000
C714        C  0.59015906  0.11720994  0.00879839    -0.03500
Br715      Br  0.64578636  0.13983036  0.01602886    -0.03200
H716        H  0.58087159  0.12136161  0.05900022     0.08900
H717        H  0.51893620  0.08691761  0.95080766     0.06900
Br718      Br  0.45535866  0.07643948  0.99450151    -0.03700
C719        C  0.78288260  0.26857539  0.96593125    -0.10300
C720        C  0.76241995  0.22734653  0.97068300     0.05900
C721        C  0.76734164  0.21152525  0.99962626    -0.04100
C722        C  0.78919961  0.23736899  0.02477308    -0.08500
C723        C  0.80578481  0.27903813  0.02148017     0.05000
C724        C  0.80405349  0.29454355  0.99083449    -0.03500
Br725      Br  0.82543045  0.35014018  0.98105574    -0.03200
H726        H  0.77935888  0.28082656  0.94345348     0.08900
H727        H  0.79088879  0.22455677  0.04758246     0.06900
Br728      Br  0.74436623  0.15520942  0.00559561    -0.03700
C729        C  0.76138962  0.36896428  0.87631053    -0.10300
C730        C  0.80138581  0.38648835  0.88533746     0.05900
C731        C  0.81922699  0.36268243  0.88543610    -0.04100
C732        C  0.79570929  0.32129847  0.88063130    -0.08500
C733        C  0.75474422  0.30342799  0.87502865     0.05000
C734        C  0.73823589  0.32800336  0.87109804    -0.03500
Br735      Br  0.68337935  0.30639132  0.86045773    -0.03200
H736        H  0.74766578  0.38709143  0.87428984     0.08900
H737        H  0.80882508  0.30273548  0.88390253     0.06900
Br738      Br  0.87435150  0.38424341  0.89515716    -0.03700
C739        C  0.37144726  0.36674114  0.86550866    -0.10300
C740        C  0.39557186  0.36970687  0.89170800     0.05900
C741        C  0.39463713  0.38922811  0.91973002    -0.04100
C742        C  0.37322974  0.40917853  0.92004475    -0.08500
C743        C  0.35161996  0.40919391  0.89285279     0.05000
C744        C  0.34909999  0.38585506  0.86604044    -0.03500
Br745      Br  0.32045940  0.38377858  0.82771236    -0.03200
H746        H  0.37210321  0.35187960  0.84377596     0.08900
H747        H  0.37552532  0.42686401  0.94084552     0.06900
Br748      Br  0.42499948  0.39212807  0.95707341    -0.03700
C749        C  0.42697054  0.22087688  0.97314939    -0.10300
C750        C  0.43817636  0.26068110  0.97940187     0.05900
C751        C  0.44178387  0.27312545  0.01168694    -0.04100
C752        C  0.43936543  0.24749307  0.03654602    -0.08500
C753        C  0.43446734  0.20994731  0.02969954     0.05000
C754        C  0.42573084  0.19574075  0.99794790    -0.03500
Br755      Br  0.41503954  0.14350397  0.98700636    -0.03200
H756        H  0.42338609  0.21044675  0.94848329     0.08900
H757        H  0.44558613  0.25871036  0.06107185     0.06900
Br758      Br  0.45339528  0.32573171  0.02300601    -0.03700
C759        C  0.65394339  0.40687022  0.90110304    -0.10300
C760        C  0.63395179  0.42216908  0.88345376     0.05900
C761        C  0.65681043  0.45811784  0.86591328    -0.04100
C762        C  0.69857089  0.47884180  0.86822283    -0.08500
C763        C  0.71802998  0.46475644  0.88831836     0.05000
C764        C  0.69478926  0.42763891  0.90433056    -0.03500
Br765      Br  0.71457552  0.40253698  0.93305146    -0.03200
H766        H  0.63755641  0.37922568  0.91451129     0.08900
H767        H  0.71565393  0.50691988  0.85554173     0.06900
Br768      Br  0.63324977  0.48064655  0.83876187    -0.03700
C769        C  0.51684885  0.22158932  0.90691318    -0.10300
C770        C  0.52212993  0.24871127  0.88234674     0.05900
C771        C  0.54971815  0.25612577  0.85767673    -0.04100
C772        C  0.57330286  0.23826520  0.85920161    -0.08500
C773        C  0.56983240  0.21341978  0.88530762     0.05000
C774        C  0.54066243  0.20452318  0.90877521    -0.03500
Br775      Br  0.53578841  0.17398581  0.94651692    -0.03200
H776        H  0.49647148  0.21647591  0.92650120     0.08900
H777        H  0.59561441  0.24530000  0.84088830     0.06900
Br778      Br  0.55931469  0.29405348  0.82400618    -0.03700
C779        C  0.64571401  0.64001321  0.14772247    -0.10300
C780        C  0.65251782  0.62539726  0.11911055     0.05900
C781        C  0.64115361  0.63473238  0.08956437    -0.04100
C782        C  0.62034617  0.65542943  0.08922998    -0.08500
C783        C  0.61095851  0.66749518  0.11807654     0.05000
C784        C  0.62543609  0.66118162  0.14742099    -0.03500
Br785      Br  0.61287766  0.67503975  0.18820153    -0.03200
H786        H  0.65344937  0.63219182  0.17067455     0.08900
H787        H  0.60903215  0.65965102  0.06654153     0.06900
Br788      Br  0.64841347  0.61481290  0.04961356    -0.03700
C789        C  0.82349007  0.57893511  0.01166642    -0.10300
C790        C  0.80708633  0.57213187  0.98061569     0.05900
C791        C  0.77093876  0.57170188  0.97613993    -0.04100
C792        C  0.74985763  0.57267598  0.00294023    -0.08500
C793        C  0.76419791  0.57473607  0.03436353     0.05000
C794        C  0.80277277  0.58096196  0.03833843    -0.03500
Br795      Br  0.82671835  0.58717791  0.07975670    -0.03200
H796        H  0.85153654  0.58018405  0.01553431     0.08900
H797        H  0.72034294  0.56814395  0.99938627     0.06900
Br798      Br  0.74518066  0.56335638  0.93501452    -0.03700
C799        C  0.60525743  0.50078259  0.00048805    -0.10300
C800        C  0.58335236  0.48870754  0.02925437     0.05900
C801        C  0.54231637  0.46160838  0.02775415    -0.04100
C802        C  0.52508536  0.44290259  0.99852007    -0.08500
C803        C  0.54813332  0.45158496  0.97057938     0.05000
C804        C  0.58801170  0.48237054  0.97130664    -0.03500
Br805      Br  0.62164157  0.49569548  0.93422842    -0.03200
H806        H  0.63698026  0.52138461  0.00133745     0.08900
H807        H  0.49467239  0.41855450  0.99850522     0.06900
Br808      Br  0.51036549  0.44370885  0.06587993    -0.03700
C809        C  0.53813213  0.32020334  0.08953905    -0.10300
C810        C  0.53092639  0.29744362  0.11778824     0.05900
C811        C  0.54494612  0.31741384  0.14746022    -0.04100
C812        C  0.56822970  0.35940865  0.14776860    -0.08500
C813        C  0.57751558  0.38147708  0.11883678     0.05000
C814        C  0.56141846  0.36139755  0.08975723    -0.03500
Br815      Br  0.57145822  0.38806317  0.04885540    -0.03200
H816        H  0.52690003  0.30569792  0.06656288     0.08900
H817        H  0.58019683  0.37460328  0.17029112     0.06900
Br818      Br  0.53544383  0.28914079  0.18757176    -0.03700
C819        C  0.80026824  0.50739461  0.13795912    -0.10300
C820        C  0.75918555  0.48555850  0.14279658     0.05900
C821        C  0.74127044  0.44508812  0.15133960    -0.04100
C822        C  0.76323912  0.42579064  0.15006006    -0.08500
C823        C  0.80278431  0.44613159  0.13942480     0.05000
C824        C  0.82215474  0.48791675  0.13580093    -0.03500
Br825      Br  0.87688048  0.51931747  0.12398329    -0.03200
H826        H  0.81462236  0.53878471  0.13316190     0.08900
H827        H  0.74883378  0.39440086  0.15551883     0.06900
Br828      Br  0.68629752  0.41474268  0.16305167    -0.03700
C829        C  0.63220194  0.13233919  0.73464848    -0.10300
C830        C  0.66986411  0.15475297  0.72017102     0.05900
C831        C  0.70290261  0.17809820  0.74031403    -0.04100
C832        C  0.69757364  0.17882266  0.77345668    -0.08500
C833        C  0.66012559  0.15645331  0.78783001     0.05000
C834        C  0.62712136  0.13278329  0.76805139    -0.03500
Br835      Br  0.57504689  0.09830271  0.78512866    -0.03200
H836        H  0.60635856  0.11391641  0.71997402     0.08900
H837        H  0.72335941  0.19701392  0.78829595     0.06900
Br838      Br  0.75669674  0.20954383  0.72544735    -0.03700
C839        C  0.84420322  0.30617210  0.26872639    -0.10300
C840        C  0.85201982  0.33901286  0.28782791     0.05900
C841        C  0.85875085  0.37440253  0.27240380    -0.04100
C842        C  0.85881212  0.37661762  0.23876970    -0.08500
C843        C  0.85147363  0.34394933  0.21951117     0.05000
C844        C  0.84359181  0.30809411  0.23505806    -0.03500
Br845      Br  0.83108035  0.25998039  0.21275025    -0.03200
H846        H  0.83843230  0.27856706  0.28006754     0.08900
H847        H  0.86423514  0.40421768  0.22768520     0.06900
Br848      Br  0.86518673  0.42008762  0.29524647    -0.03700
C849        C  0.76693942  0.19340058  0.47595636    -0.10300
C850        C  0.80089671  0.23107492  0.47166362     0.05900
C851        C  0.82260963  0.25188677  0.49915398    -0.04100
C852        C  0.80699212  0.23798983  0.53008377    -0.08500
C853        C  0.77073621  0.20232003  0.53421937     0.05000
C854        C  0.75240225  0.17857672  0.50697534    -0.03500
Br855      Br  0.70454051  0.12808292  0.51088970    -0.03200
H856        H  0.74975238  0.17701856  0.45513950     0.08900
H857        H  0.82152401  0.25671228  0.55072159     0.06900
Br858      Br  0.87103174  0.30205043  0.49538563    -0.03700
C859        C  0.87792898  0.51213398  0.74040045    -0.10300
C860        C  0.86309532  0.53374041  0.72412924     0.05900
C861        C  0.84909164  0.55446850  0.74256538    -0.04100
C862        C  0.84885635  0.55197807  0.77622160    -0.08500
C863        C  0.86266064  0.52945141  0.79253213     0.05000
C864        C  0.87807666  0.50994476  0.77406477    -0.03500
Br865      Br  0.90109744  0.48071265  0.79246569    -0.03200
H866        H  0.88909214  0.49619693  0.72684531     0.08900
H867        H  0.83767259  0.56793859  0.78971543     0.06900
Br868      Br  0.83123013  0.58807983  0.72390876    -0.03700
C869        C  0.88559163  0.45727317  0.51940402    -0.10300
C870        C  0.85947524  0.43464415  0.54424181     0.05900
C871        C  0.83607735  0.39320254  0.54105731    -0.04100
C872        C  0.83779228  0.37504805  0.51307371    -0.08500
C873        C  0.86047674  0.39754785  0.48649280     0.05000
C874        C  0.88587882  0.43919734  0.49027556    -0.03500
Br875      Br  0.91954496  0.47357626  0.45657190    -0.03200
H876        H  0.90352340  0.48933299  0.52172931     0.08900
H877        H  0.81833863  0.34309155  0.51141286     0.06900
Br878      Br  0.79745261  0.35985395  0.57243700    -0.03700
C879        C  0.76479033  0.35144357  0.67043332    -0.10300
C880        C  0.80348616  0.37685103  0.65946252     0.05900
C881        C  0.82628944  0.35995594  0.64931454    -0.04100
C882        C  0.80764501  0.31874742  0.64404401    -0.08500
C883        C  0.76698465  0.29439693  0.64980866     0.05000
C884        C  0.74689540  0.31029216  0.66651571    -0.03500
Br885      Br  0.69420453  0.27686048  0.68267869    -0.03200
H886        H  0.74731167  0.36379257  0.67941624     0.08900
H887        H  0.82379121  0.30667576  0.63205296     0.06900
Br888      Br  0.88039284  0.39205600  0.63569139    -0.03700
C889        C  0.49641116  0.13749464  0.26838681    -0.10300
C890        C  0.47451264  0.15221606  0.28385548     0.05900
C891        C  0.45610358  0.16850200  0.26466947    -0.04100
C892        C  0.45967995  0.16940944  0.23112290    -0.08500
C893        C  0.48139489  0.15451050  0.21565860     0.05000
C894        C  0.50013480  0.13857322  0.23481981    -0.03500
Br895      Br  0.53027647  0.11651358  0.21731783    -0.03200
H896        H  0.51136783  0.12545332  0.28251771     0.08900
H897        H  0.44511610  0.18188244  0.21699181     0.06900
Br898      Br  0.42446732  0.18896724  0.28197832    -0.03700
C899        C  0.54529478  0.14952768  0.49776252    -0.10300
C900        C  0.56054613  0.14642430  0.46821857     0.05900
C901        C  0.59062509  0.13660069  0.46788752    -0.04100
C902        C  0.60781011  0.13446368  0.49692761    -0.08500
C903        C  0.59469623  0.14083326  0.52644207     0.05000
C904        C  0.56176590  0.14642470  0.52672755    -0.03500
Br905      Br  0.54125384  0.15585270  0.56520413    -0.03200
H906        H  0.52180117  0.15658712  0.49827085     0.08900
H907        H  0.63297090  0.13006751  0.49631511     0.06900
Br908      Br  0.61259918  0.13044588  0.42877052    -0.03700
C909        C  0.64312016  0.18364562  0.35377894    -0.10300
C910        C  0.62848456  0.20958857  0.34823203     0.05900
C911        C  0.65510799  0.24927511  0.33953267    -0.04100
C912        C  0.69568487  0.26397792  0.34161913    -0.08500
C913        C  0.71021952  0.24012675  0.35406376     0.05000
C914        C  0.68407758  0.19882356  0.35717983    -0.03500
Br915      Br  0.70206416  0.16342479  0.37084763    -0.03200
H916        H  0.62274110  0.15260859  0.35938481     0.08900
H917        H  0.71571880  0.29559454  0.33774905     0.06900
Br918      Br  0.63765837  0.28592901  0.32912160    -0.03700
C919        C  0.46160592  0.31297271  0.77323960    -0.10300
C920        C  0.48607576  0.34994687  0.78815288     0.05900
C921        C  0.50860459  0.38395799  0.76850092    -0.04100
C922        C  0.50655866  0.38023700  0.73506885    -0.08500
C923        C  0.48242283  0.34332064  0.72034693     0.05000
C924        C  0.45948246  0.30945994  0.73968669    -0.03500
Br925      Br  0.42265244  0.25846158  0.72177689    -0.03200
H926        H  0.44373559  0.28654475  0.78771283     0.08900
H927        H  0.52418568  0.40656825  0.72038698     0.06900
Br928      Br  0.54149606  0.43694318  0.78478179    -0.03700
C929        C  0.44778327  0.20563301  0.49607658    -0.10300
C930        C  0.46835778  0.23078474  0.46975482     0.05900
C931        C  0.48551333  0.27232050  0.47369829    -0.04100
C932        C  0.48382824  0.28792576  0.50317747    -0.08500
C933        C  0.46611103  0.26357033  0.53005459     0.05000
C934        C  0.44699341  0.22185980  0.52632572    -0.03500
Br935      Br  0.42422951  0.18678960  0.56258780    -0.03200
H936        H  0.43517117  0.17375409  0.49390544     0.08900
H937        H  0.49976160  0.31997911  0.50586319     0.06900
Br938      Br  0.51573195  0.31080458  0.44112295    -0.03700
C939        C  0.68586040  0.45240293  0.66630614    -0.10300
C940        C  0.71030447  0.48366899  0.64513123     0.05900
C941        C  0.69310836  0.50158897  0.62641860    -0.04100
C942        C  0.65184127  0.48382155  0.62501738    -0.08500
C943        C  0.62735053  0.44968113  0.64327359     0.05000
C944        C  0.64462492  0.43615421  0.66613879    -0.03500
Br945      Br  0.61257146  0.39273188  0.69485200    -0.03200
H946        H  0.69859415  0.43900309  0.68159823     0.08900
H947        H  0.63873066  0.49475435  0.60761410     0.06900
Br948      Br  0.72335952  0.54667021  0.59872686    -0.03700
C949        C  0.54168151  0.23319676  0.64133824    -0.10300
C950        C  0.56361635  0.27460618  0.63529229     0.05900
C951        C  0.60532232  0.29285514  0.63185010    -0.04100
C952        C  0.62264562  0.26930567  0.62945704    -0.08500
C953        C  0.60034015  0.22781488  0.63282257     0.05000
C954        C  0.55992131  0.20992921  0.64094546    -0.03500
Br955      Br  0.52771661  0.15382064  0.64913470    -0.03200
H956        H  0.50996235  0.21849541  0.64497427     0.08900
H957        H  0.65396507  0.28361843  0.62400923     0.06900
Br958      Br  0.64156196  0.34940444  0.62906016    -0.03700
C959        C  0.64906834  0.49619926  0.27431201    -0.10300
C960        C  0.67159327  0.53308376  0.28960825     0.05900
C961        C  0.69126759  0.56784830  0.27078928    -0.04100
C962        C  0.68771600  0.56551527  0.23716205    -0.08500
C963        C  0.66473906  0.52869550  0.22150825     0.05000
C964        C  0.64588681  0.49361019  0.24058242    -0.03500
Br965      Br  0.61760740  0.44123257  0.22234823    -0.03200
H966        H  0.63405054  0.46921142  0.28872007     0.08900
H967        H  0.70274148  0.59287224  0.22320437     0.06900
Br968      Br  0.72223029  0.61920733  0.29016428    -0.03700
C969        C  0.77587695  0.52298107  0.47730774    -0.10300
C970        C  0.76059909  0.54866447  0.47539101     0.05900
C971        C  0.76871903  0.57554354  0.50089664    -0.04100
C972        C  0.78728113  0.57247554  0.52929338    -0.08500
C973        C  0.79781909  0.54287524  0.53243819     0.05000
C974        C  0.79408123  0.51985434  0.50519232    -0.03500
Br975      Br  0.81173616  0.48215719  0.50442602    -0.03200
H976        H  0.77118271  0.50301369  0.45751756     0.08900
H977        H  0.79094237  0.59132315  0.54961205     0.06900
Br978      Br  0.75280428  0.61460883  0.49900505    -0.03700
C979        C  0.53552674  0.44122350  0.47411971    -0.10300
C980        C  0.57248103  0.47641380  0.47551422     0.05900
C981        C  0.58680538  0.49524978  0.50542055    -0.04100
C982        C  0.56755179  0.47563765  0.53374911    -0.08500
C983        C  0.53448486  0.43719633  0.53245967     0.05000
C984        C  0.51637731  0.42150021  0.50255088    -0.03500
Br985      Br  0.46714359  0.37207845  0.49966913    -0.03200
H986        H  0.52372477  0.42683799  0.45118457     0.08900
H987        H  0.58120718  0.48839679  0.55673438     0.06900
Br988      Br  0.63500212  0.54538578  0.50905724    -0.03700
C989        C  0.52978540  0.36474106  0.36847285    -0.10300
C990        C  0.57044003  0.38875541  0.36210099     0.05900
C991        C  0.58994227  0.37186160  0.34616968    -0.04100
C992        C  0.57148953  0.33049289  0.34358600    -0.08500
C993        C  0.53294512  0.30546454  0.35529575     0.05000
C994        C  0.51032908  0.32332840  0.36336271    -0.03500
Br995      Br  0.45399994  0.29304335  0.36958259    -0.03200
H996        H  0.51363210  0.37781588  0.37886775     0.08900
H997        H  0.58837833  0.31772552  0.33420750     0.06900
Br998      Br  0.64233412  0.40402425  0.32910701    -0.03700
C999        C  0.71784574  0.41168999  0.38622968    -0.10300
C1000       C  0.73887804  0.45257456  0.37853124     0.05900
C1001       C  0.77867044  0.46941118  0.36815468    -0.04100
C1002       C  0.79712717  0.44616713  0.36877801    -0.08500
C1003       C  0.77661028  0.40638842  0.37985417     0.05000
C1004       C  0.73600953  0.38895894  0.38730339    -0.03500
Br1005     Br  0.70276370  0.33442685  0.40064416    -0.03200
H1006       H  0.68698321  0.39708775  0.39324365     0.08900
H1007       H  0.82808814  0.45983169  0.36226361     0.06900
Br1008     Br  0.80945966  0.52347916  0.35335037    -0.03700
C1009       C  0.49925711  0.63967953  0.27025269    -0.10300
C1010       C  0.51999128  0.67412859  0.28921421     0.05900
C1011       C  0.54121378  0.71140883  0.27317587    -0.04100
C1012       C  0.54174626  0.71322375  0.23942136    -0.08500
C1013       C  0.52134276  0.67874231  0.22049451     0.05000
C1014       C  0.49953962  0.64156808  0.23649003    -0.03500
Br1015     Br  0.46775586  0.59203950  0.21441735    -0.03200
H1016       H  0.48243638  0.61073919  0.28171416     0.08900
H1017       H  0.55842923  0.74215419  0.22790629     0.06900
Br1018     Br  0.56944658  0.76162390  0.29503507    -0.03700
C1019       C  0.63645192  0.66279686  0.41705131    -0.10300
C1020       C  0.62125213  0.66629286  0.38727501     0.05900
C1021       C  0.63427507  0.65661827  0.35897680    -0.04100
C1022       C  0.65754080  0.63868943  0.36103425    -0.08500
C1023       C  0.66750780  0.62938679  0.39107383     0.05000
C1024       C  0.65933924  0.64428066  0.41906136    -0.03500
Br1025     Br  0.67504407  0.63579200  0.46069768    -0.03200
H1026       H  0.62692929  0.67029881  0.43904927     0.08900
H1027       H  0.66323656  0.62722030  0.33925669     0.06900
Br1028     Br  0.61623792  0.66217188  0.31718001    -0.03700
C1029       C  0.37133067  0.88098135  0.27161373    -0.10300
C1030       C  0.33605257  0.86226829  0.28946915     0.05900
C1031       C  0.29953032  0.84624096  0.27269402    -0.04100
C1032       C  0.29916984  0.84888624  0.23903533    -0.08500
C1033       C  0.33449720  0.86788658  0.22117325     0.05000
C1034       C  0.37099520  0.88434148  0.23801205    -0.03500
Br1035     Br  0.42190718  0.91096007  0.21734094    -0.03200
H1036       H  0.39959991  0.89379158  0.28392510     0.08900
H1037       H  0.27087259  0.83596194  0.22674280     0.06900
Br1038     Br  0.24866038  0.81910337  0.29352281    -0.03700
C1039       C  0.37713224  0.98896538  0.42238104    -0.10300
C1040       C  0.35416032  0.97004613  0.39511443     0.05900
C1041       C  0.34982327  0.99334240  0.37105352    -0.04100
C1042       C  0.37111407  0.03516878  0.37329106    -0.08500
C1043       C  0.39774522  0.05417924  0.39886434     0.05000
C1044       C  0.39893288  0.03054796  0.42439551    -0.03500
Br1045     Br  0.43295640  0.05349455  0.46113708    -0.03200
H1046       H  0.38099552  0.97139107  0.44087668     0.08900
H1047       H  0.37012598  0.05273195  0.35329559     0.06900
Br1048     Br  0.31944151  0.96952714  0.33285872    -0.03700
C1049       C  0.39816198  0.75345808  0.40274926    -0.10300
C1050       C  0.41796442  0.79294867  0.39153701     0.05900
C1051       C  0.45651505  0.80840281  0.37849587    -0.04100
C1052       C  0.47475047  0.78493043  0.37872218    -0.08500
C1053       C  0.45551590  0.74625654  0.39210549     0.05000
C1054       C  0.41622373  0.73049127  0.40353028    -0.03500
Br1055     Br  0.38417608  0.67786844  0.42131055    -0.03200
H1056       H  0.36823944  0.74026498  0.41205180     0.08900
H1057       H  0.50476645  0.79767626  0.36980793     0.06900
Br1058     Br  0.48686357  0.86172833  0.36190218    -0.03700
C1059       C  0.17800520  0.49041126  0.23479073    -0.10300
C1060       C  0.14327071  0.48287602  0.21853096     0.05900
C1061       C  0.11078463  0.47807090  0.23712721    -0.04100
C1062       C  0.11392748  0.48144578  0.27083610    -0.08500
C1063       C  0.14859828  0.48871145  0.28697407     0.05000
C1064       C  0.18090528  0.49324963  0.26846449    -0.03500
Br1065     Br  0.23069927  0.50537500  0.28743823    -0.03200
H1066       H  0.20352315  0.49485240  0.22118743     0.08900
H1067       H  0.08854123  0.47703661  0.28462908     0.06900
Br1068     Br  0.06025442  0.46421576  0.21863308    -0.03700
C1069       C  0.97763780  0.37277586  0.42052581    -0.10300
C1070       C  0.95649893  0.35160089  0.39322455     0.05900
C1071       C  0.97757859  0.34864935  0.36684698    -0.04100
C1072       C  0.01929136  0.37074458  0.36679467    -0.08500
C1073       C  0.04010319  0.39568872  0.39274220     0.05000
C1074       C  0.01893568  0.39469736  0.42045664    -0.03500
Br1075     Br  0.04484851  0.42572122  0.45794150    -0.03200
H1076       H  0.96187436  0.37482886  0.44114257     0.08900
H1077       H  0.03517561  0.37132456  0.34530387     0.06900
Br1078     Br  0.95118579  0.31987707  0.32858641    -0.03700
C1079       C  0.22455267  0.65677817  0.36320910    -0.10300
C1080       C  0.20877414  0.63551655  0.39218755     0.05900
C1081       C  0.21095036  0.65697459  0.42014673    -0.04100
C1082       C  0.22963544  0.69837629  0.41907959    -0.08500
C1083       C  0.24780043  0.72006889  0.39088431     0.05000
C1084       C  0.24458245  0.69885525  0.36248500    -0.03500
Br1085     Br  0.27077160  0.72569816  0.32343131    -0.03200
H1086       H  0.22348883  0.64083112  0.34161202     0.08900
H1087       H  0.23159398  0.71396967  0.44114951     0.06900
Br1088     Br  0.19005799  0.63204312  0.46123104    -0.03700
C1089       C  0.30975422  0.51602635  0.37426174    -0.10300
C1090       C  0.29135233  0.53881447  0.37060334     0.05900
C1091       C  0.31485396  0.57944874  0.36230332    -0.04100
C1092       C  0.35610653  0.59783993  0.36350506    -0.08500
C1093       C  0.37456903  0.57621187  0.37240360     0.05000
C1094       C  0.35120006  0.53440310  0.37522808    -0.03500
Br1095     Br  0.37350128  0.50134823  0.38397563    -0.03200
H1096       H  0.29209539  0.48451975  0.37890220     0.08900
H1097       H  0.37378124  0.62965685  0.35935797     0.06900
Br1098     Br  0.29213454  0.61141792  0.35015737    -0.03700
C1099       C  0.49608146  0.87288154  0.73635241    -0.10300
C1100       C  0.51158515  0.85266698  0.71949630     0.05900
C1101       C  0.52699792  0.83245911  0.73742959    -0.04100
C1102       C  0.53033135  0.83621302  0.77096541    -0.08500
C1103       C  0.51693500  0.85835707  0.78788437     0.05000
C1104       C  0.49769117  0.87509918  0.77011046    -0.03500
Br1105     Br  0.47073701  0.89940973  0.78965160    -0.03200
H1106       H  0.48271700  0.88729172  0.72319722     0.08900
H1107       H  0.54313448  0.82110312  0.78387959     0.06900
Br1108     Br  0.54118348  0.79657488  0.71827769    -0.03700
C1109       C  0.64529495  0.02449077  0.59118017    -0.10300
C1110       C  0.65408158  0.04620448  0.61986337     0.05900
C1111       C  0.64804082  0.02597181  0.64953202    -0.04100
C1112       C  0.62926631  0.98426767  0.65019023    -0.08500
C1113       C  0.61707187  0.96216448  0.62157999     0.05000
C1114       C  0.62754748  0.98281770  0.59191243    -0.03500
Br1115     Br  0.61330675  0.95479757  0.55190630    -0.03200
H1116       H  0.65010025  0.03971932  0.56820028     0.08900
H1117       H  0.62076868  0.96886737  0.67323261     0.06900
Br1118     Br  0.65952953  0.05334195  0.68994899    -0.03700
C1119       C  0.53634216  0.75262278  0.54251573    -0.10300
C1120       C  0.55593025  0.79374554  0.53648169     0.05900
C1121       C  0.57665076  0.80863786  0.50752357    -0.04100
C1122       C  0.57364420  0.78211861  0.48353101    -0.08500
C1123       C  0.54948426  0.74051672  0.48780689     0.05000
C1124       C  0.53277521  0.72588838  0.51868284    -0.03500
Br1125     Br  0.50200438  0.67029004  0.53008090    -0.03200
H1126       H  0.52111769  0.74088335  0.56522876     0.08900
H1127       H  0.58806622  0.79432031  0.46063053     0.06900
Br1128     Br  0.60902201  0.86468699  0.49991181    -0.03700
C1129       C  0.45502653  0.92751450  0.53112683    -0.10300
C1130       C  0.48316360  0.91531189  0.52911873     0.05900
C1131       C  0.49558386  0.91106135  0.49822438    -0.04100
C1132       C  0.47596092  0.91298969  0.47062209    -0.08500
C1133       C  0.44317267  0.91808045  0.47318605     0.05000
C1134       C  0.43481407  0.92861523  0.50332368    -0.03500
Br1135     Br  0.39340749  0.94073252  0.50770827    -0.03200
H1136       H  0.44513557  0.93116705  0.55452278     0.08900
H1137       H  0.48279527  0.90482979  0.44762913     0.06900
Br1138     Br  0.53437914  0.89545191  0.49249602    -0.03700
C1139       C  0.17592309  0.70501635  0.73248508    -0.10300
C1140       C  0.15070700  0.66794472  0.71832451     0.05900
C1141       C  0.12400050  0.63598461  0.73799428    -0.04100
C1142       C  0.12287477  0.64165543  0.77109719    -0.08500
C1143       C  0.14800558  0.67883693  0.78551646     0.05000
C1144       C  0.17507756  0.71078030  0.76563432    -0.03500
Br1145     Br  0.21128273  0.76340926  0.78117639    -0.03200
H1146       H  0.19643054  0.72991498  0.71751177     0.08900
H1147       H  0.10198714  0.61651252  0.78562606     0.06900
Br1148     Br  0.08627610  0.58473768  0.72097700    -0.03700
C1149       C  0.02412717  0.64016305  0.58871429    -0.10300
C1150       C  0.04327283  0.65325373  0.61850060     0.05900
C1151       C  0.02067047  0.64763965  0.64640215    -0.04100
C1152       C  0.97928733  0.62736517  0.64441423    -0.08500
C1153       C  0.96007657  0.61045807  0.61521402     0.05000
C1154       C  0.98274729  0.61793189  0.58703392    -0.03500
Br1155     Br  0.95863821  0.59421057  0.54663337    -0.03200
H1156       H  0.04131088  0.64322809  0.56733939     0.08900
H1157       H  0.96215971  0.62075698  0.66640181     0.06900
Br1158     Br  0.04489589  0.66163927  0.68828641    -0.03700
C1159       C  0.10822769  0.53044379  0.54198561    -0.10300
C1160       C  0.09642944  0.55867919  0.53877287     0.05900
C1161       C  0.08542966  0.56546686  0.50815444    -0.04100
C1162       C  0.09314655  0.54958903  0.48077559    -0.08500
C1163       C  0.11256433  0.52748404  0.48363618     0.05000
C1164       C  0.11749078  0.51575239  0.51493069    -0.03500
Br1165     Br  0.14096851  0.48396476  0.52370848    -0.03200
H1166       H  0.11646411  0.52473903  0.56560555     0.08900
H1167       H  0.08732759  0.55776804  0.45721580     0.06900
Br1168     Br  0.06300589  0.59892877  0.50289025    -0.03700
C1169       C  0.20883228  0.77211352  0.47010925    -0.10300
C1170       C  0.24221664  0.80906880  0.47749665     0.05900
C1171       C  0.24855952  0.82201114  0.50962153    -0.04100
C1172       C  0.22517036  0.79589583  0.53417635    -0.08500
C1173       C  0.19539019  0.75659187  0.52713711     0.05000
C1174       C  0.18558717  0.74584554  0.49458197    -0.03500
Br1175     Br  0.14221254  0.69526598  0.48190583    -0.03200
H1176       H  0.20286666  0.76201452  0.44537099     0.08900
H1177       H  0.23259355  0.80538853  0.55896151     0.06900
Br1178     Br  0.28946105  0.87448586  0.52106730    -0.03700
C1179       C  0.35349122  0.78073784  0.64296413    -0.10300
C1180       C  0.37300913  0.79981301  0.61419201     0.05900
C1181       C  0.35088836  0.80052359  0.58775125    -0.04100
C1182       C  0.30981247  0.78070330  0.58954540    -0.08500
C1183       C  0.28977760  0.75936928  0.61732724     0.05000
C1184       C  0.31181100  0.76028113  0.64465892    -0.03500
Br1185     Br  0.28631765  0.73086324  0.68313880    -0.03200
H1186       H  0.37049436  0.78016019  0.66347388     0.08900
H1187       H  0.29319917  0.78026904  0.56836971     0.06900
Br1188     Br  0.37539542  0.82667343  0.54793449    -0.03700
C1189       C  0.36675680  0.50189209  0.76638248    -0.10300
C1190       C  0.32947551  0.48261147  0.78163243     0.05900
C1191       C  0.29511620  0.46339872  0.76208539    -0.04100
C1192       C  0.29871826  0.46464835  0.72850536    -0.08500
C1193       C  0.33592758  0.48459031  0.71328554     0.05000
C1194       C  0.37028155  0.50305440  0.73273162    -0.03500
Br1195     Br  0.42299900  0.52884308  0.71536648    -0.03200
H1196       H  0.39357273  0.51666263  0.78068048     0.08900
H1197       H  0.27193733  0.44991937  0.71414084     0.06900
Br1198     Br  0.24209353  0.43372872  0.77887141    -0.03700
C1199       C  0.35339158  0.37218348  0.64738546    -0.10300
C1200       C  0.34294028  0.38280327  0.61815605     0.05900
C1201       C  0.34936092  0.36846428  0.58918073    -0.04100
C1202       C  0.37151971  0.34917492  0.58941364    -0.08500
C1203       C  0.38602535  0.34264563  0.61849835     0.05000
C1204       C  0.37414818  0.35159110  0.64775127    -0.03500
Br1205     Br  0.39144745  0.34260832  0.68867275    -0.03200
H1206       H  0.34853124  0.38303888  0.66987699     0.08900
H1207       H  0.38064695  0.34279158  0.56670689     0.06900
Br1208     Br  0.33366970  0.38009477  0.54861011    -0.03700
C1209       C  0.24897954  0.42246032  0.49534849    -0.10300
C1210       C  0.23536278  0.42585003  0.52568128     0.05900
C1211       C  0.19748735  0.42188728  0.52742128    -0.04100
C1212       C  0.17857522  0.42336869  0.49899845    -0.08500
C1213       C  0.19698823  0.42893964  0.46902645     0.05000
C1214       C  0.23041456  0.42455215  0.46710534    -0.03500
Br1215     Br  0.25384090  0.42501216  0.42670879    -0.03200
H1216       H  0.27593089  0.42168550  0.49356917     0.08900
H1217       H  0.15106521  0.42345768  0.50042688     0.06900
Br1218     Br  0.17221127  0.41883658  0.56750265    -0.03700
C1219       C  0.43115179  0.52087451  0.46573990    -0.10300
C1220       C  0.46900647  0.55454543  0.46728064     0.05900
C1221       C  0.48803831  0.56567037  0.49745494    -0.04100
C1222       C  0.46634796  0.54828939  0.52587604    -0.08500
C1223       C  0.42588692  0.51928805  0.52418669     0.05000
C1224       C  0.40951383  0.50350140  0.49380024    -0.03500
Br1225     Br  0.35605935  0.46158860  0.48888190    -0.03200
H1226       H  0.41633855  0.51147263  0.44274834     0.08900
H1227       H  0.47989379  0.56037313  0.54899544     0.06900
Br1228     Br  0.54206513  0.60783745  0.50045542    -0.03700
C1229       C  0.44867836  0.64670423  0.62834121    -0.10300
C1230       C  0.41311844  0.62812879  0.61019627     0.05900
C1231       C  0.39944729  0.65269648  0.59685456    -0.04100
C1232       C  0.41942802  0.69323983  0.60331436    -0.08500
C1233       C  0.45593123  0.71227507  0.61965187     0.05000
C1234       C  0.47063359  0.68851862  0.63231843    -0.03500
Br1235     Br  0.52187657  0.71179226  0.65207974    -0.03200
H1236       H  0.46041828  0.62893441  0.63826198     0.08900
H1237       H  0.40768790  0.71080988  0.59286051     0.06900
Br1238     Br  0.35733367  0.63591637  0.56563564    -0.03700
C1239       C  0.19165130  0.54140697  0.63101992    -0.10300
C1240       C  0.21394263  0.58250795  0.62384916     0.05900
C1241       C  0.25553925  0.60054959  0.62136283    -0.04100
C1242       C  0.27284450  0.57679349  0.62066155    -0.08500
C1243       C  0.24996299  0.53530552  0.62372157     0.05000
C1244       C  0.20965018  0.51794078  0.63174527    -0.03500
Br1245     Br  0.17823502  0.46274612  0.64309063    -0.03200
H1246       H  0.15992773  0.52712801  0.63471401     0.08900
H1247       H  0.30452870  0.59073505  0.61703572     0.06900
Br1248     Br  0.29060209  0.65730565  0.61950059    -0.03700
loop_ 
_geom_bond_atom_site_label_1 
_geom_bond_atom_site_label_2 
_geom_bond_distance 
_geom_bond_site_symmetry_2 
_ccdc_geom_bond_type 
O1           C16   1.265       .  A
O1           Al9   1.918       .  S
C2           O12   1.262       .  A
C2            O3   1.259       .  A
C2         C1223   1.482       .  S
O3           Al5   1.895       .  S
O4            C6   1.256       .  A
O4           Al5   1.892       .  S
Al5          O13   1.877       .  S
Al5          O15   1.914       .  S
Al5          O14   1.769       .  S
C6           O19   1.261       .  A
C6         C1210   1.487       .  S
O7           C17   1.269       .  A
O7           Al9   1.914       .  S
O8           C21   1.259       .  A
O8          Al18   1.909       .  S
Al9          O22   1.907       .  S
Al9          O19   1.942       .  S
Al9          O14   1.799       .  S
O10          C17   1.270       .  A
O10         Al18   1.920       .  S
O11          C20   1.264       .  A
O11         Al18   1.939       .  S
O12         Al18   1.925       .  S
O13          C20   1.255       .  A
O14         Al18   1.791       .  S
O15          C16   1.267       .  A
C16        C1243   1.477       .  S
C17        C1200   1.472       .  S
C20        C1230   1.498       .  S
C21          O22   1.259       .  A
C21        C1193   1.488       .  S
O23          C38   1.267       .  A
O23         Al31   1.925       .  S
C24          O34   1.258       .  A
C24          O25   1.254       .  A
C24        C1160   1.463       .  S
O25         Al27   1.868       .  S
O26          C28   1.258       .  A
O26         Al27   1.902       .  S
Al27         O35   1.888       .  S
Al27         O37   1.891       .  S
Al27         O36   1.774       .  S
C28          O41   1.259       .  A
C28        C1173   1.483       .  S
O29          C39   1.267       .  A
O29         Al31   1.910       .  S
O30          C43   1.257       .  A
O30         Al40   1.901       .  S
Al31         O44   1.898       .  S
Al31         O41   1.919       .  S
Al31         O36   1.794       .  S
O32          C39   1.265       .  A
O32         Al40   1.903       .  S
O33          C42   1.262       .  A
O33         Al40   1.919       .  S
O34         Al40   1.918       .  S
O35          C42   1.260       .  A
O36         Al40   1.794       .  S
O37          C38   1.262       .  A
C38        C1183   1.471       .  S
C39        C1150   1.463       .  S
C42        C1240   1.487       .  S
C43          O44   1.256       .  A
C43        C1140   1.475       .  S
O45          C60   1.275       .  A
O45         Al53   1.958       .  S
C46          O56   1.263       .  A
C46          O47   1.251       .  A
C46        C1130   1.482       .  S
O47         Al49   1.861       .  S
O48          C50   1.257       .  A
O48         Al49   1.905       .  S
Al49         O57   1.894       .  S
Al49         O59   1.870       .  S
Al49         O58   1.779       .  S
C50          O63   1.255       .  A
C50        C1120   1.472       .  S
O51          C61   1.274       .  A
O51         Al53   1.941       .  S
O52          C65   1.258       .  A
O52         Al62   1.908       .  S
Al53         O66   1.899       .  S
Al53         O63   1.911       .  S
Al53         O58   1.803       .  S
O54          C61   1.264       .  A
O54         Al62   1.897       .  S
O55          C64   1.258       .  A
O55         Al62   1.900       .  S
O56         Al62   1.941       .  S
O57          C64   1.259       .  A
O58         Al62   1.798       .  S
O59          C60   1.260       .  A
C60        C1233   1.490       .  S
C61        C1113   1.477       .  S
C64        C1180   1.466       .  S
C65          O66   1.255       .  A
C65        C1100   1.488       .  S
O67          C82   1.275       .  A
O67         Al75   1.955       .  S
C68          O78   1.273       .  A
C68          O69   1.265       .  A
C68        C1163   1.491       .  S
O69         Al71   1.895       .  S
O70          C72   1.256       .  A
O70         Al71   1.907       .  S
Al71         O79   1.908       .  S
Al71         O81   1.876       .  S
Al71         O80   1.779       .  S
C72          O85   1.255       .  A
C72        C1213   1.477       .  S
O73          C83   1.267       .  A
O73         Al75   1.941       .  S
O74          C87   1.264       .  A
O74         Al84   1.929       .  S
Al75         O88   1.884       .  S
Al75         O85   1.918       .  S
Al75         O80   1.794       .  S
O76          C83   1.256       .  A
O76         Al84   1.868       .  S
O77          C86   1.260       .  A
O77         Al84   1.927       .  S
O78         Al84   1.945       .  S
O79          C86   1.257       .  A
O80         Al84   1.786       .  S
O81          C82   1.263       .  A
C82        C1090   1.479       .  S
C83        C1073   1.477       .  S
C86        C1080   1.486       .  S
C87          O88   1.255       .  A
C87        C1063   1.489       .  S
O89         C104   1.275       .  A
O89         Al97   1.944       .  S
C90         O100   1.259       .  A
C90          O91   1.253       .  A
C90        C1133   1.476       .  S
O91         Al93   1.875       .  S
O92          C94   1.253       .  A
O92         Al93   1.901       .  S
Al93        O101   1.882       .  S
Al93        O103   1.906       .  S
Al93        O102   1.776       .  S
C94         O107   1.254       .  A
C94        C1170   1.476       .  S
O95         C105   1.274       .  A
O95         Al97   1.926       .  S
O96         C109   1.257       .  A
O96        Al106   1.910       .  S
Al97        O110   1.890       .  S
Al97        O107   1.911       .  S
Al97        O102   1.802       .  S
O98         C105   1.271       .  A
O98        Al106   1.919       .  S
O99         C108   1.263       .  A
O99        Al106   1.927       .  S
O100       Al106   1.923       .  S
O101        C108   1.261       .  A
O102       Al106   1.795       .  S
O103        C104   1.268       .  A
C104       C1083   1.488       .  S
C105       C1040   1.476       .  S
C108       C1050   1.497       .  S
C109        O110   1.250       .  A
C109       C1030   1.487       .  S
O111        C126   1.268       .  A
O111       Al119   1.949       .  S
C112        O122   1.261       .  A
C112        O113   1.255       .  A
C112       C1220   1.472       .  S
O113       Al115   1.886       .  S
O114        C116   1.260       .  A
O114       Al115   1.889       .  S
Al115       O123   1.879       .  S
Al115       O125   1.897       .  S
Al115       O124   1.772       .  S
C116        O129   1.268       .  A
C116       C1123   1.489       .  S
O117        C127   1.266       .  A
O117       Al119   1.928       .  S
O118        C131   1.261       .  A
O118       Al128   1.895       .  S
Al119       O132   1.923       .  S
Al119       O129   1.932       .  S
Al119       O124   1.787       .  S
O120        C127   1.263       .  A
O120       Al128   1.903       .  S
O121        C130   1.266       .  A
O121       Al128   1.938       .  S
O122       Al128   1.930       .  S
O123        C130   1.259       .  A
O124       Al128   1.790       .  S
O125        C126   1.256       .  A
C126       C1053   1.495       .  S
C127       C1020   1.479       .  S
C130       C1093   1.478       .  S
C131        O132   1.263       .  A
C131       C1010   1.496       .  S
O133        C148   1.261       .  A
O133       Al141   1.908       .  S
C134        O144   1.258       .  A
C134        O135   1.266       .  A
C134        C980   1.466       .  S
O135       Al137   1.940       .  S
O136        C138   1.259       .  A
O136       Al137   1.878       .  S
Al137       O145   1.908       .  S
Al137       O147   1.913       .  S
Al137       O146   1.783       .  S
C138        O151   1.273       .  A
C138       C1023   1.478       .  S
O139        C149   1.267       .  A
O139       Al141   1.949       .  S
O140        C153   1.260       .  A
O140       Al150   1.861       .  S
Al141       O154   1.971       .  S
Al141       O151   1.966       .  S
Al141       O146   1.791       .  S
O142        C149   1.260       .  A
O142       Al150   1.892       .  S
O143        C152   1.264       .  A
O143       Al150   1.933       .  S
O144       Al150   1.879       .  S
O145        C152   1.258       .  A
O146       Al150   1.761       .  S
O147        C148   1.261       .  A
C148        C960   1.474       .  S
C149        C970   1.488       .  S
C152        C990   1.476       .  S
C153        O154   1.273       .  A
C153       C1000   1.498       .  S
O155        C170   1.260       .  A
O155       Al163   1.893       .  S
C156        O166   1.261       .  A
C156        O157   1.265       .  A
C156        C983   1.464       .  S
O157       Al159   1.930       .  S
O158        C160   1.258       .  A
O158       Al159   1.877       .  S
Al159       O167   1.915       .  S
Al159       O169   1.896       .  S
Al159       O168   1.779       .  S
C160        O173   1.270       .  A
C160       C1203   1.474       .  S
O161        C171   1.266       .  A
O161       Al163   1.936       .  S
O162        C175   1.259       .  A
O162       Al172   1.877       .  S
Al163       O176   1.960       .  S
Al163       O173   1.957       .  S
Al163       O168   1.785       .  S
O164        C171   1.259       .  A
O164       Al172   1.894       .  S
O165        C174   1.260       .  A
O165       Al172   1.915       .  S
O166       Al172   1.886       .  S
O167        C174   1.259       .  A
O168       Al172   1.762       .  S
O169        C170   1.261       .  A
C170        C923   1.470       .  S
C171        C933   1.480       .  S
C174        C943   1.471       .  S
C175        O176   1.274       .  A
C175        C950   1.493       .  S
O177        C192   1.262       .  A
O177       Al185   1.890       .  S
C178        O188   1.261       .  A
C178        O179   1.264       .  A
C178        C900   1.469       .  S
O179       Al181   1.921       .  S
O180        C182   1.253       .  A
O180       Al181   1.875       .  S
Al181       O189   1.898       .  S
Al181       O191   1.921       .  S
Al181       O190   1.788       .  S
C182        O195   1.265       .  A
C182       C1043   1.484       .  S
O183        C193   1.270       .  A
O183       Al185   1.944       .  S
O184        C197   1.263       .  A
O184       Al194   1.901       .  S
Al185       O198   1.954       .  S
Al185       O195   1.952       .  S
Al185       O190   1.792       .  S
O186        C193   1.264       .  A
O186       Al194   1.908       .  S
O187        C196   1.258       .  A
O187       Al194   1.900       .  S
O188       Al194   1.882       .  S
O189        C196   1.254       .  A
O190       Al194   1.766       .  S
O191        C192   1.268       .  A
C192        C890   1.487       .  S
C193        C930   1.489       .  S
C196        C910   1.471       .  S
C197        O198   1.267       .  A
C197        C993   1.496       .  S
O199        C214   1.267       .  A
O199       Al207   1.892       .  S
C200        O210   1.257       .  A
C200        O201   1.259       .  A
C200        C870   1.463       .  S
O201       Al203   1.908       .  S
O202        C204   1.249       .  A
O202       Al203   1.881       .  S
Al203       O211   1.900       .  S
Al203       O213   1.931       .  S
Al203       O212   1.790       .  S
C204        O217   1.256       .  A
C204       C1153   1.469       .  S
O205        C215   1.273       .  A
O205       Al207   1.927       .  S
O206        C219   1.255       .  A
O206       Al216   1.902       .  S
Al207       O220   1.928       .  S
Al207       O217   1.926       .  S
Al207       O212   1.801       .  S
O208        C215   1.273       .  A
O208       Al216   1.934       .  S
O209        C218   1.258       .  A
O209       Al216   1.892       .  S
O210       Al216   1.871       .  S
O211        C218   1.256       .  A
O212       Al216   1.771       .  S
O213        C214   1.273       .  A
C214        C860   1.486       .  S
C215        C973   1.489       .  S
C218        C880   1.475       .  S
C219        O220   1.258       .  A
C219        C940   1.483       .  S
O221        C236   1.261       .  A
O221       Al229   1.886       .  S
C222        O232   1.262       .  A
C222        O223   1.271       .  A
C222        C873   1.486       .  S
O223       Al225   1.951       .  S
O224        C226   1.259       .  A
O224       Al225   1.878       .  S
Al225       O233   1.925       .  S
Al225       O235   1.919       .  S
Al225       O234   1.776       .  S
C226        O239   1.265       .  A
C226       C1070   1.478       .  S
O227        C237   1.263       .  A
O227       Al229   1.940       .  S
O228        C241   1.258       .  A
O228       Al238   1.850       .  S
Al229       O242   1.963       .  S
Al229       O239   1.934       .  S
Al229       O234   1.785       .  S
O230        C237   1.257       .  A
O230       Al238   1.908       .  S
O231        C240   1.257       .  A
O231       Al238   1.904       .  S
O232       Al238   1.862       .  S
O233        C240   1.260       .  A
O234       Al238   1.763       .  S
O235        C236   1.265       .  A
C236        C840   1.483       .  S
C237        C850   1.481       .  S
C240       C1003   1.485       .  S
C241        O242   1.273       .  A
C241        C913   1.475       .  S
O243        C258   1.259       .  A
O243       Al251   1.891       .  S
C244        O254   1.263       .  A
C244        O245   1.268       .  A
C244        C903   1.472       .  S
O245       Al247   1.935       .  S
O246        C248   1.262       .  A
O246       Al247   1.902       .  S
Al247       O255   1.920       .  S
Al247       O257   1.918       .  S
Al247       O256   1.785       .  S
C248        O261   1.264       .  A
C248       C1110   1.479       .  S
O249        C259   1.265       .  A
O249       Al251   1.937       .  S
O250        C263   1.259       .  A
O250       Al260   1.873       .  S
Al251       O264   1.949       .  S
Al251       O261   1.929       .  S
Al251       O256   1.787       .  S
O252        C259   1.259       .  A
O252       Al260   1.910       .  S
O253        C262   1.258       .  A
O253       Al260   1.899       .  S
O254       Al260   1.890       .  S
O255        C262   1.260       .  A
O256       Al260   1.772       .  S
O257        C258   1.265       .  A
C258        C830   1.491       .  S
C259        C853   1.483       .  S
C262        C953   1.480       .  S
C263        O264   1.268       .  A
C263        C883   1.475       .  S
O265        C280   1.264       .  A
O265       Al273   1.916       .  S
C266        O276   1.267       .  A
C266        O267   1.261       .  A
C266        C800   1.473       .  S
O267       Al269   1.882       .  S
O268        C270   1.251       .  A
O268       Al269   1.874       .  S
Al269       O277   1.890       .  S
Al269       O279   1.898       .  S
Al269       O278   1.774       .  S
C270        O283   1.260       .  A
C270        C793   1.482       .  S
O271        C281   1.267       .  A
O271       Al273   1.930       .  S
O272        C285   1.267       .  A
O272       Al282   1.917       .  S
Al273       O286   1.920       .  S
Al273       O283   1.936       .  S
Al273       O278   1.796       .  S
O274        C281   1.261       .  A
O274       Al282   1.909       .  S
O275        C284   1.256       .  A
O275       Al282   1.919       .  S
O276       Al282   1.926       .  S
O277        C284   1.254       .  A
O278       Al282   1.793       .  S
O279        C280   1.263       .  A
C280        C820   1.472       .  S
C281        C780   1.477       .  S
C284        C813   1.473       .  S
C285        O286   1.266       .  A
C285        C963   1.491       .  S
O287        C302   1.265       .  A
O287       Al295   1.929       .  S
C288        O298   1.259       .  A
C288        O289   1.257       .  A
C288        C803   1.469       .  S
O289       Al291   1.895       .  S
O290        C292   1.261       .  A
O290       Al291   1.893       .  S
Al291       O299   1.879       .  S
Al291       O301   1.897       .  S
Al291       O300   1.767       .  S
C292        O305   1.266       .  A
C292        C750   1.477       .  S
O293        C303   1.265       .  A
O293       Al295   1.909       .  S
O294        C307   1.256       .  A
O294       Al304   1.887       .  S
Al295       O308   1.910       .  S
Al295       O305   1.928       .  S
Al295       O300   1.788       .  S
O296        C303   1.267       .  A
O296       Al304   1.922       .  S
O297        C306   1.265       .  A
O297       Al304   1.940       .  S
O298       Al304   1.913       .  S
O299        C306   1.261       .  A
O300       Al304   1.782       .  S
O301        C302   1.259       .  A
C302        C770   1.471       .  S
C303        C740   1.474       .  S
C306        C760   1.491       .  S
C307        O308   1.261       .  A
C307        C920   1.482       .  S
O309        C324   1.268       .  A
O309       Al317   1.929       .  S
C310        O320   1.263       .  A
C310        O311   1.261       .  A
C310        C713   1.478       .  S
O311       Al313   1.898       .  S
O312        C314   1.255       .  A
O312       Al313   1.896       .  S
Al313       O321   1.905       .  S
Al313       O323   1.899       .  S
Al313       O322   1.776       .  S
C314        O327   1.256       .  A
C314        C720   1.464       .  S
O315        C325   1.266       .  A
O315       Al317   1.923       .  S
O316        C329   1.263       .  A
O316       Al326   1.912       .  S
Al317       O330   1.899       .  S
Al317       O327   1.909       .  S
Al317       O322   1.799       .  S
O318        C325   1.260       .  A
O318       Al326   1.895       .  S
O319        C328   1.258       .  A
O319       Al326   1.914       .  S
O320       Al326   1.920       .  S
O321        C328   1.258       .  A
O322       Al326   1.795       .  S
O323        C324   1.262       .  A
C324        C733   1.477       .  S
C325        C700   1.468       .  S
C328        C773   1.476       .  S
C329        O330   1.262       .  A
C329        C833   1.481       .  S
O331        C346   1.272       .  A
O331       Al339   1.947       .  S
C332        O342   1.259       .  A
C332        O333   1.254       .  A
C332        C693   1.470       .  S
O333       Al335   1.878       .  S
O334        C336   1.262       .  A
O334       Al335   1.906       .  S
Al335       O343   1.893       .  S
Al335       O345   1.890       .  S
Al335       O344   1.772       .  S
C336        O349   1.262       .  A
C336        C790   1.485       .  S
O337        C347   1.270       .  A
O337       Al339   1.924       .  S
O338        C351   1.255       .  A
O338       Al348   1.894       .  S
Al339       O352   1.909       .  S
Al339       O349   1.928       .  S
Al339       O344   1.792       .  S
O340        C347   1.266       .  A
O340       Al348   1.904       .  S
O341        C350   1.262       .  A
O341       Al348   1.926       .  S
O342       Al348   1.920       .  S
O343        C350   1.260       .  A
O344       Al348   1.791       .  S
O345        C346   1.257       .  A
C346        C763   1.488       .  S
C347        C680   1.471       .  S
C350        C730   1.486       .  S
C351        O352   1.259       .  A
C351        C863   1.488       .  S
O353        C368   1.270       .  A
O353       Al361   1.930       .  S
C354        O364   1.258       .  A
C354        O355   1.254       .  A
C354        C710   1.468       .  S
O355       Al357   1.878       .  S
O356        C358   1.257       .  A
O356       Al357   1.901       .  S
Al357       O365   1.882       .  S
Al357       O367   1.898       .  S
Al357       O366   1.770       .  S
C358        O371   1.257       .  A
C358        C753   1.474       .  S
O359        C369   1.268       .  A
O359       Al361   1.909       .  S
O360        C373   1.254       .  A
O360       Al370   1.898       .  S
Al361       O374   1.900       .  S
Al361       O371   1.917       .  S
Al361       O366   1.800       .  S
O362        C369   1.270       .  A
O362       Al370   1.921       .  S
O363        C372   1.263       .  A
O363       Al370   1.933       .  S
O364       Al370   1.915       .  S
O365        C372   1.261       .  A
O366       Al370   1.790       .  S
O367        C368   1.267       .  A
C368        C810   1.483       .  S
C369        C660   1.468       .  S
C372        C670   1.495       .  S
C373        O374   1.256       .  A
C373        C893   1.485       .  S
O375        C390   1.269       .  A
O375       Al383   1.943       .  S
C376        O386   1.260       .  A
C376        O377   1.260       .  A
C376        C690   1.472       .  S
O377       Al379   1.904       .  S
O378        C380   1.258       .  A
O378       Al379   1.888       .  S
Al379       O387   1.887       .  S
Al379       O389   1.900       .  S
Al379       O388   1.769       .  S
C380        O393   1.264       .  A
C380        C723   1.488       .  S
O381        C391   1.264       .  A
O381       Al383   1.921       .  S
O382        C395   1.261       .  A
O382       Al392   1.887       .  S
Al383       O396   1.921       .  S
Al383       O393   1.924       .  S
Al383       O388   1.790       .  S
O384        C391   1.264       .  A
O384       Al392   1.917       .  S
O385        C394   1.265       .  A
O385       Al392   1.942       .  S
O386       Al392   1.916       .  S
O387        C394   1.258       .  A
O388       Al392   1.791       .  S
O389        C390   1.260       .  A
C390        C673   1.493       .  S
C391        C650   1.477       .  S
C394        C823   1.484       .  S
C395        O396   1.263       .  A
C395        C843   1.489       .  S
O397        C412   1.263       .  A
O397       Al405   1.894       .  S
C398        O408   1.258       .  A
C398        O399   1.265       .  A
C398        C620   1.466       .  S
O399       Al401   1.933       .  S
O400        C402   1.255       .  A
O400       Al401   1.880       .  S
Al401       O409   1.898       .  S
Al401       O411   1.935       .  S
Al401       O410   1.785       .  S
C402        O415   1.267       .  A
C402        C743   1.483       .  S
O403        C413   1.266       .  A
O403       Al405   1.925       .  S
O404        C417   1.255       .  A
O404       Al414   1.876       .  S
Al405       O418   1.966       .  S
Al405       O415   1.954       .  S
Al405       O410   1.788       .  S
O406        C413   1.267       .  A
O406       Al414   1.933       .  S
O407        C416   1.260       .  A
O407       Al414   1.903       .  S
O408       Al414   1.877       .  S
O409        C416   1.257       .  A
O410       Al414   1.766       .  S
O411        C412   1.270       .  A
C412       C1190   1.491       .  S
C413        C610   1.484       .  S
C416        C633   1.468       .  S
C417        O418   1.270       .  A
C417        C640   1.488       .  S
O419        C434   1.263       .  A
O419       Al427   1.913       .  S
C420        O430   1.264       .  A
C420        O421   1.266       .  A
C420        C583   1.465       .  S
O421       Al423   1.929       .  S
O422        C424   1.258       .  A
O422       Al423   1.870       .  S
Al423       O431   1.922       .  S
Al423       O433   1.910       .  S
Al423       O432   1.787       .  S
C424        O437   1.273       .  A
C424        C653   1.478       .  S
O425        C435   1.265       .  A
O425       Al427   1.944       .  S
O426        C439   1.262       .  A
O426       Al436   1.889       .  S
Al427       O440   1.970       .  S
Al427       O437   1.962       .  S
Al427       O432   1.781       .  S
O428        C435   1.254       .  A
O428       Al436   1.891       .  S
O429        C438   1.259       .  A
O429       Al436   1.890       .  S
O430       Al436   1.892       .  S
O431        C438   1.261       .  A
O432       Al436   1.766       .  S
O433        C434   1.260       .  A
C434       C1060   1.494       .  S
C435        C613   1.480       .  S
C438        C593   1.468       .  S
C439        O440   1.276       .  A
C439        C603   1.486       .  S
O441        C456   1.261       .  A
O441       Al449   1.897       .  S
C442        O452   1.258       .  A
C442        O443   1.266       .  A
C442        C580   1.469       .  S
O443       Al445   1.939       .  S
O444        C446   1.258       .  A
O444       Al445   1.872       .  S
Al445       O453   1.910       .  S
Al445       O455   1.916       .  S
Al445       O454   1.775       .  S
C446        O459   1.270       .  A
C446        C683   1.471       .  S
O447        C457   1.267       .  A
O447       Al449   1.929       .  S
O448        C461   1.255       .  A
O448       Al458   1.849       .  S
Al449       O462   1.961       .  S
Al449       O459   1.957       .  S
Al449       O454   1.786       .  S
O450        C457   1.263       .  A
O450       Al458   1.918       .  S
O451        C460   1.263       .  A
O451       Al458   1.924       .  S
O452       Al458   1.866       .  S
O453        C460   1.258       .  A
O454       Al458   1.753       .  S
O455        C456   1.265       .  A
C456       C1143   1.488       .  S
C457        C560   1.481       .  S
C460        C643   1.473       .  S
C461        O462   1.269       .  A
C461        C573   1.486       .  S
O463        C478   1.260       .  A
O463       Al471   1.897       .  S
C464        O474   1.264       .  A
C464        O465   1.267       .  A
C464        C553   1.471       .  S
O465       Al467   1.919       .  S
O466        C468   1.258       .  A
O466       Al467   1.876       .  S
Al467       O475   1.909       .  S
Al467       O477   1.914       .  S
Al467       O476   1.784       .  S
C468        O481   1.267       .  A
C468        C703   1.472       .  S
O469        C479   1.264       .  A
O469       Al471   1.942       .  S
O470        C483   1.259       .  A
O470       Al480   1.868       .  S
Al471       O484   1.948       .  S
Al471       O481   1.939       .  S
Al471       O476   1.788       .  S
O472        C479   1.256       .  A
O472       Al480   1.894       .  S
O473        C482   1.258       .  A
O473       Al480   1.904       .  S
O474       Al480   1.898       .  S
O475        C482   1.259       .  A
O476       Al480   1.771       .  S
O477        C478   1.260       .  A
C478       C1103   1.495       .  S
C479        C540   1.482       .  S
C482        C570   1.473       .  S
C483        O484   1.269       .  A
C483        C630   1.475       .  S
O485        C500   1.263       .  A
O485       Al493   1.898       .  S
C486        O496   1.259       .  A
C486        O487   1.268       .  A
C486        C550   1.465       .  S
O487       Al489   1.938       .  S
O488        C490   1.256       .  A
O488       Al489   1.862       .  S
Al489       O497   1.906       .  S
Al489       O499   1.923       .  S
Al489       O498   1.772       .  S
C490        O503   1.271       .  A
C490        C663   1.474       .  S
O491        C501   1.266       .  A
O491       Al493   1.933       .  S
O492        C505   1.250       .  A
O492       Al502   1.852       .  S
Al493       O506   1.972       .  S
Al493       O503   1.961       .  S
Al493       O498   1.785       .  S
O494        C501   1.263       .  A
O494       Al502   1.926       .  S
O495        C504   1.263       .  A
O495       Al502   1.929       .  S
O496       Al502   1.874       .  S
O497        C504   1.257       .  A
O498       Al502   1.754       .  S
O499        C500   1.264       .  A
C500       C1033   1.488       .  S
C501        C563   1.483       .  S
C504        C530   1.472       .  S
C505        O506   1.273       .  A
C505        C590   1.483       .  S
O507        C522   1.267       .  A
O507       Al515   1.891       .  S
C508        O518   1.256       .  A
C508        O509   1.267       .  A
C508        C623   1.488       .  S
O509       Al511   1.949       .  S
O510        C512   1.255       .  A
O510       Al511   1.893       .  S
Al511       O519   1.908       .  S
Al511       O521   1.947       .  S
Al511       O520   1.781       .  S
C512        O525   1.263       .  A
C512        C783   1.481       .  S
O513        C523   1.266       .  A
O513       Al515   1.925       .  S
O514        C527   1.254       .  A
O514       Al524   1.868       .  S
Al515       O528   1.970       .  S
Al515       O525   1.942       .  S
Al515       O520   1.793       .  S
O516        C523   1.269       .  A
O516       Al524   1.937       .  S
O517        C526   1.260       .  A
O517       Al524   1.916       .  S
O518       Al524   1.844       .  S
O519        C526   1.258       .  A
O520       Al524   1.763       .  S
O521        C522   1.274       .  A
C522       C1013   1.494       .  S
C523        C543   1.482       .  S
C526        C600   1.481       .  S
C527        O528   1.269       .  A
C527        C533   1.479       .  S
C529        C530   1.403       .  A
C529        C534   1.404       .  A
C529        H536   1.083       .  S
C530        C531   1.404       .  A
C531        C532   1.398       .  A
C531       Br538   1.918       .  S
C532        C533   1.407       .  A
C532        H537   1.084       .  S
C533        C534   1.411       .  A
C534       Br535   1.917       .  S
C539        C540   1.403       .  A
C539        C544   1.400   1_556  A
C539        H546   1.082       .  S
C540        C541   1.407       .  A
C541        C542   1.408   1_556  A
C541       Br548   1.907       .  S
C542        C543   1.404       .  A
C542        H547   1.083       .  S
C543        C544   1.408       .  A
C544       Br545   1.913       .  S
C549        C550   1.401       .  A
C549        C554   1.396       .  A
C549        H556   1.083       .  S
C550        C551   1.407       .  A
C551        C552   1.393   1_554  A
C551       Br558   1.913   1_554  S
C552        C553   1.403       .  A
C552        H557   1.084       .  S
C553        C554   1.409   1_556  A
C554       Br555   1.909       .  S
C559        C560   1.404   1_554  A
C559        C564   1.403       .  A
C559        H566   1.084       .  S
C560        C561   1.410       .  A
C561        C562   1.407   1_556  A
C561       Br568   1.916       .  S
C562        C563   1.403       .  A
C562        H567   1.080       .  S
C563        C564   1.409       .  A
C564       Br565   1.916       .  S
C569        C570   1.408       .  A
C569        C574   1.409       .  A
C569        H576   1.084       .  S
C570        C571   1.407       .  A
C571        C572   1.380       .  A
C571       Br578   1.919       .  S
C572        C573   1.406       .  A
C572        H577   1.084       .  S
C573        C574   1.414       .  A
C574       Br575   1.918       .  S
C579        C580   1.402   1_554  A
C579        C584   1.392       .  A
C579        H586   1.085       .  S
C580        C581   1.409       .  A
C581        C582   1.397   1_556  A
C581       Br588   1.913       .  S
C582        C583   1.399       .  A
C582        H587   1.083       .  S
C583        C584   1.408       .  A
C584       Br585   1.916       .  S
C589        C590   1.413       .  A
C589        C594   1.411       .  A
C589        H596   1.082       .  S
C590        C591   1.422       .  A
C591        C592   1.376       .  A
C591       Br598   1.933       .  S
C592        C593   1.392       .  A
C592        H597   1.083       .  S
C593        C594   1.407       .  A
C594       Br595   1.916       .  S
C599        C600   1.401       .  A
C599        C604   1.404       .  A
C599        H606   1.083       .  S
C600        C601   1.412       .  A
C601        C602   1.405       .  A
C601       Br608   1.916       .  S
C602        C603   1.403       .  A
C602        H607   1.083       .  S
C603        C604   1.413       .  A
C604       Br605   1.915       .  S
C609        C610   1.402       .  A
C609        C614   1.403       .  A
C609        H616   1.075       .  S
C610        C611   1.409       .  A
C611        C612   1.406   1_556  A
C611       Br618   1.917       .  S
C612        C613   1.406       .  A
C612        H617   1.083       .  S
C613        C614   1.408   1_554  A
C614       Br615   1.911       .  S
C619        C620   1.405       .  A
C619        C624   1.410   1_556  A
C619        H626   1.083       .  S
C620        C621   1.403       .  A
C621        C622   1.381       .  A
C621       Br628   1.920       .  S
C622        C623   1.407   1_556  A
C622        H627   1.083   1_556  S
C623        C624   1.415       .  A
C624       Br625   1.917       .  S
C629        C630   1.404       .  A
C629        C634   1.395       .  A
C629        H636   1.085       .  S
C630        C631   1.407       .  A
C631        C632   1.403       .  A
C631       Br638   1.916       .  S
C632        C633   1.405       .  A
C632        H637   1.084       .  S
C633        C634   1.403       .  A
C634       Br635   1.916       .  S
C639        C640   1.409       .  A
C639        C644   1.400       .  A
C639        H646   1.083       .  S
C640        C641   1.411       .  A
C641        C642   1.402       .  A
C641       Br648   1.913       .  S
C642        C643   1.400       .  A
C642        H647   1.081       .  S
C643        C644   1.404       .  A
C644       Br645   1.919       .  S
C649        C650   1.399       .  A
C649        C654   1.400   1_655  A
C649        H656   1.082       .  S
C650        C651   1.409       .  A
C651        C652   1.405   1_655  A
C651       Br658   1.915       .  S
C652        C653   1.403       .  A
C652        H657   1.084       .  S
C653        C654   1.411       .  A
C654       Br655   1.915       .  S
C659        C660   1.399       .  A
C659        C664   1.397   1_545  A
C659        H666   1.084       .  S
C660        C661   1.407       .  A
C661        C662   1.404   1_545  A
C661       Br668   1.918       .  S
C662        C663   1.405       .  A
C662        H667   1.084       .  S
C663        C664   1.411       .  A
C664       Br665   1.919       .  S
C669        C670   1.399       .  A
C669        C674   1.389       .  A
C669        H676   1.084       .  S
C670        C671   1.419       .  A
C671        C672   1.416       .  A
C671       Br678   1.918       .  S
C672        C673   1.410       .  A
C672        H677   1.083       .  S
C673        C674   1.415       .  A
C674       Br675   1.914       .  S
C679        C680   1.402       .  A
C679        C684   1.402   1_655  A
C679        H686   1.084       .  S
C680        C681   1.409       .  A
C681        C682   1.401   1_655  A
C681       Br688   1.920       .  S
C682        C683   1.402       .  A
C682        H687   1.084       .  S
C683        C684   1.409       .  A
C684       Br685   1.919       .  S
C689        C690   1.400       .  A
C689        C694   1.399       .  A
C689        H696   1.083       .  S
C690        C691   1.408       .  A
C691        C692   1.403   1_554  A
C691       Br698   1.914       .  S
C692        C693   1.402       .  A
C692        H697   1.084       .  S
C693        C694   1.408   1_556  A
C694       Br695   1.916       .  S
C699        C700   1.400       .  A
C699        C704   1.399   1_545  A
C699        H706   1.084       .  S
C700        C701   1.410       .  A
C701        C702   1.401   1_545  A
C701       Br708   1.920       .  S
C702        C703   1.402       .  A
C702        H707   1.084       .  S
C703        C704   1.410       .  A
C704       Br705   1.914       .  S
C709        C710   1.398       .  A
C709        C714   1.395       .  A
C709        H716   1.084       .  S
C710        C711   1.408       .  A
C711        C712   1.405   1_554  A
C711       Br718   1.913   1_554  S
C712        C713   1.404       .  A
C712        H717   1.083       .  S
C713        C714   1.410   1_556  A
C714       Br715   1.912       .  S
C719        C720   1.396       .  A
C719        C724   1.392       .  A
C719        H726   1.083       .  S
C720        C721   1.401       .  A
C721        C722   1.403   1_556  A
C721       Br728   1.916   1_556  S
C722        C723   1.415       .  A
C722        H727   1.083       .  S
C723        C724   1.418   1_554  A
C724       Br725   1.924       .  S
C729        C730   1.404       .  A
C729        C734   1.397       .  A
C729        H736   1.083       .  S
C730        C731   1.413       .  A
C731        C732   1.408       .  A
C731       Br738   1.918       .  S
C732        C733   1.406       .  A
C732        H737   1.084       .  S
C733        C734   1.406       .  A
C734       Br735   1.917       .  S
C739        C740   1.402       .  A
C739        C744   1.405       .  A
C739        H746   1.083       .  S
C740        C741   1.405       .  A
C741        C742   1.400       .  A
C741       Br748   1.916       .  S
C742        C743   1.406       .  A
C742        H747   1.083       .  S
C743        C744   1.413       .  A
C744       Br745   1.918       .  S
C749        C750   1.406       .  A
C749        C754   1.397       .  A
C749        H756   1.086       .  S
C750        C751   1.410   1_556  A
C751        C752   1.398       .  A
C751       Br758   1.921       .  S
C752        C753   1.405       .  A
C752        H757   1.088       .  S
C753        C754   1.405   1_554  A
C754       Br755   1.914       .  S
C759        C760   1.399       .  A
C759        C764   1.384       .  A
C759        H766   1.083       .  S
C760        C761   1.418       .  A
C761        C762   1.412       .  A
C761       Br768   1.916       .  S
C762        C763   1.407       .  A
C762        H767   1.083       .  S
C763        C764   1.420       .  A
C764       Br765   1.925       .  S
C769        C770   1.399       .  A
C769        C774   1.392       .  A
C769        H776   1.086       .  S
C770        C771   1.410       .  A
C771        C772   1.408       .  A
C771       Br778   1.918       .  S
C772        C773   1.406       .  A
C772        H777   1.084       .  S
C773        C774   1.406       .  A
C774       Br775   1.908       .  S
C779        C780   1.404       .  A
C779        C784   1.402       .  A
C779        H786   1.084       .  S
C780        C781   1.408       .  A
C781        C782   1.404       .  A
C781       Br788   1.918       .  S
C782        C783   1.406       .  A
C782        H787   1.084       .  S
C783        C784   1.411       .  A
C784       Br785   1.920       .  S
C789        C790   1.402   1_554  A
C789        C794   1.401       .  A
C789        H796   1.084       .  S
C790        C791   1.416       .  A
C791        C792   1.400   1_556  A
C791       Br798   1.921       .  S
C792        C793   1.403       .  A
C792        H797   1.085   1_554  S
C793        C794   1.410       .  A
C794       Br795   1.910       .  S
C799        C800   1.405       .  A
C799        C804   1.397   1_554  A
C799        H806   1.085       .  S
C800        C801   1.407       .  A
C801        C802   1.402   1_554  A
C801       Br808   1.916       .  S
C802        C803   1.403       .  A
C802        H807   1.083       .  S
C803        C804   1.407       .  A
C804       Br805   1.919       .  S
C809        C810   1.404       .  A
C809        C814   1.386       .  A
C809        H816   1.084       .  S
C810        C811   1.414       .  A
C811        C812   1.412       .  A
C811       Br818   1.918       .  S
C812        C813   1.408       .  A
C812        H817   1.080       .  S
C813        C814   1.405       .  A
C814       Br815   1.917       .  S
C819        C820   1.401       .  A
C819        C824   1.404       .  A
C819        H826   1.072       .  S
C820        C821   1.404       .  A
C821        C822   1.399       .  A
C821       Br828   1.920       .  S
C822        C823   1.406       .  A
C822        H827   1.077       .  S
C823        C824   1.411       .  A
C824       Br825   1.916       .  S
C829        C830   1.411       .  A
C829        C834   1.403       .  A
C829        H836   1.084       .  S
C830        C831   1.417       .  A
C831        C832   1.395       .  A
C831       Br838   1.924       .  S
C832        C833   1.403       .  A
C832        H837   1.084       .  S
C833        C834   1.409       .  A
C834       Br835   1.920       .  S
C839        C840   1.405       .  A
C839        C844   1.399       .  A
C839        H846   1.083       .  S
C840        C841   1.412       .  A
C841        C842   1.397       .  A
C841       Br848   1.922       .  S
C842        C843   1.408       .  A
C842        H847   1.082       .  S
C843        C844   1.417       .  A
C844       Br845   1.923       .  S
C849        C850   1.405       .  A
C849        C854   1.406       .  A
C849        H856   1.083       .  S
C850        C851   1.410       .  A
C851        C852   1.405       .  A
C851       Br858   1.918       .  S
C852        C853   1.405       .  A
C852        H857   1.083       .  S
C853        C854   1.409       .  A
C854       Br855   1.915       .  S
C859        C860   1.406       .  A
C859        C864   1.399       .  A
C859        H866   1.083       .  S
C860        C861   1.413       .  A
C861        C862   1.399       .  A
C861       Br868   1.922       .  S
C862        C863   1.407       .  A
C862        H867   1.083       .  S
C863        C864   1.416       .  A
C864       Br865   1.923       .  S
C869        C870   1.402       .  A
C869        C874   1.406       .  A
C869        H876   1.083       .  S
C870        C871   1.402       .  A
C871        C872   1.384       .  A
C871       Br878   1.916       .  S
C872        C873   1.406       .  A
C872        H877   1.083       .  S
C873        C874   1.418       .  A
C874       Br875   1.919       .  S
C879        C880   1.400       .  A
C879        C884   1.396       .  A
C879        H886   1.084       .  S
C880        C881   1.416       .  A
C881        C882   1.404       .  A
C881       Br888   1.919       .  S
C882        C883   1.400       .  A
C882        H887   1.083       .  S
C883        C884   1.409       .  A
C884       Br885   1.917       .  S
C889        C890   1.408       .  A
C889        C894   1.399       .  A
C889        H896   1.083       .  S
C890        C891   1.414       .  A
C891        C892   1.398       .  A
C891       Br898   1.922       .  S
C892        C893   1.407       .  A
C892        H897   1.084       .  S
C893        C894   1.413       .  A
C894       Br895   1.922       .  S
C899        C900   1.399       .  A
C899        C904   1.393       .  A
C899        H906   1.084       .  S
C900        C901   1.409       .  A
C901        C902   1.398       .  A
C901       Br908   1.913       .  S
C902        C903   1.402       .  A
C902        H907   1.081       .  S
C903        C904   1.410       .  A
C904       Br905   1.910       .  S
C909        C910   1.406       .  A
C909        C914   1.406       .  A
C909        H916   1.082       .  S
C910        C911   1.402       .  A
C911        C912   1.391       .  A
C911       Br918   1.912       .  S
C912        C913   1.404       .  A
C912        H917   1.084       .  S
C913        C914   1.407       .  A
C914       Br915   1.917       .  S
C919        C920   1.409       .  A
C919        C924   1.398       .  A
C919        H926   1.083       .  S
C920        C921   1.415       .  A
C921        C922   1.394       .  A
C921       Br928   1.922       .  S
C922        C923   1.402       .  A
C922        H927   1.084       .  S
C923        C924   1.406       .  A
C924       Br925   1.920       .  S
C929        C930   1.411       .  A
C929        C934   1.417       .  A
C929        H936   1.083       .  S
C930        C931   1.412       .  A
C931        C932   1.387       .  A
C931       Br938   1.912       .  S
C932        C933   1.395       .  A
C932        H937   1.082       .  S
C933        C934   1.411       .  A
C934       Br935   1.915       .  S
C939        C940   1.407       .  A
C939        C944   1.403       .  A
C939        H946   1.084       .  S
C940        C941   1.414       .  A
C941        C942   1.399       .  A
C941       Br948   1.917       .  S
C942        C943   1.400       .  A
C942        H947   1.084       .  S
C943        C944   1.406       .  A
C944       Br945   1.919       .  S
C949        C950   1.411       .  A
C949        C954   1.408       .  A
C949        H956   1.082       .  S
C950        C951   1.419       .  A
C951        C952   1.392       .  A
C951       Br958   1.925       .  S
C952        C953   1.400       .  A
C952        H957   1.083       .  S
C953        C954   1.409       .  A
C954       Br955   1.918       .  S
C959        C960   1.403       .  A
C959        C964   1.404       .  A
C959        H966   1.083       .  S
C960        C961   1.402       .  A
C961        C962   1.400       .  A
C961       Br968   1.917       .  S
C962        C963   1.410       .  A
C962        H967   1.083       .  S
C963        C964   1.415       .  A
C964       Br965   1.920       .  S
C969        C970   1.401       .  A
C969        C974   1.391       .  A
C969        H976   1.085       .  S
C970        C971   1.412       .  A
C971        C972   1.416       .  A
C971       Br978   1.912       .  S
C972        C973   1.410       .  A
C972        H977   1.083       .  S
C973        C974   1.409       .  A
C974       Br975   1.911       .  S
C979        C980   1.402       .  A
C979        C984   1.398       .  A
C979        H986   1.084       .  S
C980        C981   1.408       .  A
C981        C982   1.394       .  A
C981       Br988   1.914       .  S
C982        C983   1.399       .  A
C982        H987   1.084       .  S
C983        C984   1.407       .  A
C984       Br985   1.917       .  S
C989        C990   1.403       .  A
C989        C994   1.409       .  A
C989        H996   1.084       .  S
C990        C991   1.404       .  A
C991        C992   1.396       .  A
C991       Br998   1.916       .  S
C992        C993   1.404       .  A
C992        H997   1.083       .  S
C993        C994   1.416       .  A
C994       Br995   1.919       .  S
C999       C1000   1.407       .  A
C999       C1004   1.386       .  A
C999       H1006   1.082       .  S
C1000      C1001   1.417       .  A
C1001      C1002   1.414       .  A
C1001     Br1008   1.917       .  S
C1002      C1003   1.409       .  A
C1002      H1007   1.082       .  S
C1003      C1004   1.410       .  A
C1004     Br1005   1.922       .  S
C1009      C1010   1.409       .  A
C1009      C1014   1.402       .  A
C1009      H1016   1.082       .  S
C1010      C1011   1.417       .  A
C1011      C1012   1.401       .  A
C1011     Br1018   1.923       .  S
C1012      C1013   1.408       .  A
C1012      H1017   1.083       .  S
C1013      C1014   1.415       .  A
C1014     Br1015   1.922       .  S
C1019      C1020   1.403       .  A
C1019      C1024   1.406       .  A
C1019      H1026   1.084       .  S
C1020      C1021   1.410       .  A
C1021      C1022   1.400       .  A
C1021     Br1028   1.920       .  S
C1022      C1023   1.402       .  A
C1022      H1027   1.084       .  S
C1023      C1024   1.410       .  A
C1024     Br1025   1.911       .  S
C1029      C1030   1.403       .  A
C1029      C1034   1.400       .  A
C1029      H1036   1.083       .  S
C1030      C1031   1.417       .  A
C1031      C1032   1.400       .  A
C1031     Br1038   1.923       .  S
C1032      C1033   1.405       .  A
C1032      H1037   1.083       .  S
C1033      C1034   1.417       .  A
C1034     Br1035   1.921       .  S
C1039      C1040   1.401       .  A
C1039      C1044   1.399   1_565  A
C1039      H1046   1.083       .  S
C1040      C1041   1.409       .  A
C1041      C1042   1.408   1_565  A
C1041     Br1048   1.916       .  S
C1042      C1043   1.407       .  A
C1042      H1047   1.083       .  S
C1043      C1044   1.412       .  A
C1044     Br1045   1.921       .  S
C1049      C1050   1.402       .  A
C1049      C1054   1.391       .  A
C1049      H1056   1.084       .  S
C1050      C1051   1.419       .  A
C1051      C1052   1.414       .  A
C1051     Br1058   1.918       .  S
C1052      C1053   1.408       .  A
C1052      H1057   1.083       .  S
C1053      C1054   1.418       .  A
C1054     Br1055   1.922       .  S
C1059      C1060   1.406       .  A
C1059      C1064   1.402       .  A
C1059      H1066   1.084       .  S
C1060      C1061   1.418       .  A
C1061      C1062   1.405       .  A
C1061     Br1068   1.923       .  S
C1062      C1063   1.404       .  A
C1062      H1067   1.084       .  S
C1063      C1064   1.414       .  A
C1064     Br1065   1.922       .  S
C1069      C1070   1.401       .  A
C1069      C1074   1.394   1_655  A
C1069      H1076   1.084       .  S
C1070      C1071   1.414       .  A
C1071      C1072   1.408   1_655  A
C1071     Br1078   1.919       .  S
C1072      C1073   1.405       .  A
C1072      H1077   1.083       .  S
C1073      C1074   1.409       .  A
C1074     Br1075   1.919       .  S
C1079      C1080   1.409       .  A
C1079      C1084   1.413       .  A
C1079      H1086   1.083       .  S
C1080      C1081   1.412       .  A
C1081      C1082   1.392       .  A
C1081     Br1088   1.923       .  S
C1082      C1083   1.404       .  A
C1082      H1087   1.084       .  S
C1083      C1084   1.413       .  A
C1084     Br1085   1.916       .  S
C1089      C1090   1.403       .  A
C1089      C1094   1.403       .  A
C1089      H1096   1.076       .  S
C1090      C1091   1.410       .  A
C1091      C1092   1.396       .  A
C1091     Br1098   1.921       .  S
C1092      C1093   1.404       .  A
C1092      H1097   1.082       .  S
C1093      C1094   1.410       .  A
C1094     Br1095   1.915       .  S
C1099      C1100   1.404       .  A
C1099      C1104   1.403       .  A
C1099      H1106   1.083       .  S
C1100      C1101   1.414       .  A
C1101      C1102   1.399       .  A
C1101     Br1108   1.922       .  S
C1102      C1103   1.407       .  A
C1102      H1107   1.083       .  S
C1103      C1104   1.419       .  A
C1104     Br1105   1.922       .  S
C1109      C1110   1.403       .  A
C1109      C1114   1.404   1_545  A
C1109      H1116   1.084       .  S
C1110      C1111   1.410       .  A
C1111      C1112   1.402   1_545  A
C1111     Br1118   1.920       .  S
C1112      C1113   1.405       .  A
C1112      H1117   1.084       .  S
C1113      C1114   1.408       .  A
C1114     Br1115   1.913       .  S
C1119      C1120   1.402       .  A
C1119      C1124   1.396       .  A
C1119      H1126   1.084       .  S
C1120      C1121   1.400       .  A
C1121      C1122   1.401       .  A
C1121     Br1128   1.912       .  S
C1122      C1123   1.412       .  A
C1122      H1127   1.083       .  S
C1123      C1124   1.419       .  A
C1124     Br1125   1.925       .  S
C1129      C1130   1.404       .  A
C1129      C1134   1.407       .  A
C1129      H1136   1.084       .  S
C1130      C1131   1.414       .  A
C1131      C1132   1.397       .  A
C1131     Br1138   1.914       .  S
C1132      C1133   1.397       .  A
C1132      H1137   1.084       .  S
C1133      C1134   1.410       .  A
C1134     Br1135   1.911       .  S
C1139      C1140   1.403       .  A
C1139      C1144   1.399       .  A
C1139      H1146   1.085       .  S
C1140      C1141   1.408       .  A
C1141      C1142   1.397       .  A
C1141     Br1148   1.920       .  S
C1142      C1143   1.410       .  A
C1142      H1147   1.084       .  S
C1143      C1144   1.417       .  A
C1144     Br1145   1.922       .  S
C1149      C1150   1.401       .  A
C1149      C1154   1.398   1_455  A
C1149      H1156   1.084       .  S
C1150      C1151   1.407       .  A
C1151      C1152   1.399   1_455  A
C1151     Br1158   1.921       .  S
C1152      C1153   1.403       .  A
C1152      H1157   1.084       .  S
C1153      C1154   1.408       .  A
C1154     Br1155   1.918       .  S
C1159      C1160   1.395       .  A
C1159      C1164   1.394       .  A
C1159      H1166   1.085       .  S
C1160      C1161   1.404       .  A
C1161      C1162   1.403       .  A
C1161     Br1168   1.912       .  S
C1162      C1163   1.410       .  A
C1162      H1167   1.083       .  S
C1163      C1164   1.417       .  A
C1164     Br1165   1.908       .  S
C1169      C1170   1.404       .  A
C1169      C1174   1.398       .  A
C1169      H1176   1.083       .  S
C1170      C1171   1.405       .  A
C1171      C1172   1.400       .  A
C1171     Br1178   1.913       .  S
C1172      C1173   1.408       .  A
C1172      H1177   1.083       .  S
C1173      C1174   1.410       .  A
C1174     Br1175   1.913       .  S
C1179      C1180   1.407       .  A
C1179      C1184   1.408       .  A
C1179      H1186   1.084       .  S
C1180      C1181   1.402       .  A
C1181      C1182   1.388       .  A
C1181     Br1188   1.920       .  S
C1182      C1183   1.402       .  A
C1182      H1187   1.085       .  S
C1183      C1184   1.410       .  A
C1184     Br1185   1.919       .  S
C1189      C1190   1.409       .  A
C1189      C1194   1.402       .  A
C1189      H1196   1.082       .  S
C1190      C1191   1.416       .  A
C1191      C1192   1.399       .  A
C1191     Br1198   1.923       .  S
C1192      C1193   1.406       .  A
C1192      H1197   1.083       .  S
C1193      C1194   1.412       .  A
C1194     Br1195   1.920       .  S
C1199      C1200   1.402       .  A
C1199      C1204   1.399       .  A
C1199      H1206   1.084       .  S
C1200      C1201   1.406       .  A
C1201      C1202   1.404       .  A
C1201     Br1208   1.916       .  S
C1202      C1203   1.405       .  A
C1202      H1207   1.084       .  S
C1203      C1204   1.410       .  A
C1204     Br1205   1.918       .  S
C1209      C1210   1.402       .  A
C1209      C1214   1.398       .  A
C1209      H1216   1.072       .  S
C1210      C1211   1.412       .  A
C1211      C1212   1.405       .  A
C1211     Br1218   1.911       .  S
C1212      C1213   1.400       .  A
C1212      H1217   1.079       .  S
C1213      C1214   1.404       .  A
C1214     Br1215   1.910       .  S
C1219      C1220   1.397       .  A
C1219      C1224   1.395       .  A
C1219      H1226   1.079       .  S
C1220      C1221   1.408       .  A
C1221      C1222   1.409       .  A
C1221     Br1228   1.915       .  S
C1222      C1223   1.406       .  A
C1222      H1227   1.083       .  S
C1223      C1224   1.408       .  A
C1224     Br1225   1.904       .  S
C1229      C1230   1.416       .  A
C1229      C1234   1.415       .  A
C1229      H1236   1.082       .  S
C1230      C1231   1.417       .  A
C1231      C1232   1.389       .  A
C1231     Br1238   1.929       .  S
C1232      C1233   1.405       .  A
C1232      H1237   1.084       .  S
C1233      C1234   1.409       .  A
C1234     Br1235   1.915       .  S
C1239      C1240   1.411       .  A
C1239      C1244   1.406       .  A
C1239      H1246   1.084       .  S
C1240      C1241   1.412       .  A
C1241      C1242   1.395       .  A
C1241     Br1248   1.923       .  S
C1242      C1243   1.400       .  A
C1242      H1247   1.083       .  S
C1243      C1244   1.406       .  A
C1244     Br1245   1.914       .  S
