geometry optimzed in LAMMPS
_audit_creation_date              2020-12-01 
_audit_creation_method            'lammps2cif' 
_symmetry_space_group_name_H-M    'P1' 
_symmetry_Int_Tables_number       1 
_symmetry_cell_setting            triclinic 
loop_ 
_symmetry_equiv_pos_as_xyz 
  x,y,z 
_cell_length_a                    50.10244215 
_cell_length_b                    50.060664905019664 
_cell_length_c                    47.88417583072749 
_cell_angle_alpha                 90.44223520350347 
_cell_angle_beta                  89.20954911833738 
_cell_angle_gamma                 120.06483983872015 
loop_ 
_atom_site_label 
_atom_site_type_symbol 
_atom_site_fract_x 
_atom_site_fract_y 
_atom_site_fract_z 
_atom_site_charge 
O1          O  0.33986358  0.41967810  0.30873300    -0.82300
O2          O  0.37195665  0.41614908  0.43563662    -0.67000
O3          O  0.34264282  0.39540945  0.36066598    -1.13600
C4          C  0.26602191  0.41748400  0.39574993     1.04600
O5          O  0.32483568  0.38452155  0.45134742    -0.80200
O6          O  0.27270889  0.36021706  0.42136835    -0.67800
Ni7        Ni  0.36948385  0.41428241  0.32949099     1.34900
C8          C  0.26764378  0.34708621  0.39770328     0.83300
O9          O  0.39149989  0.39829168  0.39152680    -0.80800
O10         O  0.40201266  0.41027934  0.34618489    -0.91000
C11         C  0.35396255  0.39710894  0.45385697     0.82900
O12         O  0.38654691  0.45542056  0.34279701    -0.69200
O13         O  0.27541813  0.41577752  0.42002752    -0.88500
C14         C  0.39571213  0.46702432  0.36684972     0.83700
C15         C  0.40823682  0.40329610  0.36982945     1.05300
H16         H  0.33565056  0.43863744  0.40288471     0.37100
O17         O  0.32677126  0.41649171  0.40215037    -1.11200
O18         O  0.28219682  0.36091859  0.37563642    -0.67800
Ni19       Ni  0.30930599  0.40344530  0.36599265     1.26300
O20         O  0.38791473  0.45070233  0.38907470    -0.68100
O21         O  0.27652564  0.41230300  0.37306689    -0.80400
C22         C  0.31089856  0.40201598  0.30709901     0.83100
O23         O  0.29411787  0.39069281  0.32874839    -0.67500
Ni24       Ni  0.30106772  0.40078085  0.43437757     1.27400
Ni25       Ni  0.35918480  0.40741549  0.39746791     1.26100
H26         H  0.33443674  0.37342607  0.35889136     0.37600
O27         O  0.41679476  0.33924214  0.69197648    -0.82300
O28         O  0.41623642  0.37141271  0.56315037    -0.67000
O29         O  0.39576526  0.34139286  0.63837321    -1.13600
C30         C  0.41958595  0.26595076  0.60265448     1.04600
O31         O  0.38543149  0.32428425  0.54766259    -0.80200
O32         O  0.36215586  0.27246776  0.57832909    -0.67800
Ni33       Ni  0.41454886  0.36919549  0.66879006     1.34900
C34         C  0.34931104  0.26661442  0.60226518     0.83300
O35         O  0.39645676  0.38914215  0.60698214    -0.80800
O36         O  0.41320479  0.40264007  0.65060445    -0.91000
C37         C  0.39772863  0.35337715  0.54490580     0.82900
O38         O  0.45530678  0.38306407  0.65545937    -0.69200
O39         O  0.41763350  0.27552515  0.57851418    -0.88500
C40         C  0.46675100  0.39352075  0.63145531     0.83700
C41         C  0.40379809  0.40738596  0.62762856     1.05300
H42         H  0.43995692  0.33619173  0.59539067     0.37100
O43         O  0.41778207  0.32667987  0.59656508    -1.11200
O44         O  0.36318842  0.28081250  0.62425475    -0.67800
Ni45       Ni  0.40555898  0.30906409  0.63295719     1.26300
O46         O  0.45017798  0.38760831  0.60969109    -0.68100
O47         O  0.41540820  0.27689635  0.62554390    -0.80400
C48         C  0.40258897  0.30994339  0.69244612     0.83100
O49         O  0.39393158  0.29361591  0.67040861    -0.67500
Ni50       Ni  0.40231520  0.30101894  0.56452310     1.27400
Ni51       Ni  0.40728685  0.35805263  0.60131146     1.26100
H52         H  0.37369143  0.33247510  0.64050526     0.37600
O53         O  0.07510762  0.41066568  0.31128557    -0.82300
O54         O  0.08428609  0.45503176  0.43489469    -0.67000
O55         O  0.10303378  0.44295052  0.35986516    -1.13600
C56         C  0.08299548  0.34596122  0.39617349     1.04600
O57         O  0.11505972  0.43889418  0.45059891    -0.80200
O58         O  0.13894816  0.41028850  0.42056571    -0.67800
Ni59       Ni  0.08285196  0.44839638  0.32904778     1.34900
C60         C  0.15237410  0.41851224  0.39694664     0.83300
O61         O  0.10127639  0.49056453  0.38940255    -0.80800
O62         O  0.08911487  0.48681331  0.34396495    -0.91000
C63         C  0.10275624  0.45570642  0.45310304     0.82900
O64         O  0.04232022  0.42676744  0.34425631    -0.69200
O65         O  0.08359037  0.35730350  0.42032827    -0.88500
C66         C  0.03180813  0.42532409  0.36876537     0.83700
C67         C  0.09813075  0.00239878  0.36699750     1.05300
H68         H  0.06090147  0.39449611  0.40306008     0.37100
O69         O  0.08303059  0.40775138  0.40210456    -1.11200
O70         O  0.13874654  0.41905228  0.37497323    -0.67800
Ni71       Ni  0.09600129  0.40221201  0.36591394     1.26300
O72         O  0.04892973  0.43459367  0.39019285    -0.68100
O73         O  0.08833860  0.36120370  0.37345952    -0.80400
C74         C  0.09491344  0.40223294  0.30779985     0.83100
O75         O  0.10843616  0.39890981  0.32852958    -0.67500
Ni76       Ni  0.09860629  0.39841470  0.43417540     1.27400
Ni77       Ni  0.09219270  0.44928388  0.39671157     1.26100
H78         H  0.12486723  0.45695685  0.35717366     0.37600
O79         O  0.15732313  0.08550572  0.68678869    -0.82300
O80         O  0.12980424  0.04441482  0.56302709    -0.67000
O81         O  0.15690629  0.05378376  0.63857169    -1.13600
C82         C  0.23646175  0.15082949  0.60431874     1.04600
O83         O  0.17714848  0.05825659  0.54891327    -0.80200
O84         O  0.22798217  0.08434035  0.58040801    -0.67800
Ni85       Ni  0.12978548  0.04672934  0.66925353     1.34900
C86         C  0.23263425  0.07755993  0.60465436     0.83300
O87         O  0.10708059  0.00805061  0.60781300    -0.80800
O88         O  0.09966618  0.00739386  0.65431123    -0.91000
C89         C  0.14816787  0.04348689  0.54501129     0.82900
O90         O  0.10873145  0.06590557  0.65429692    -0.69200
O91         O  0.22835959  0.13883628  0.58004930    -0.88500
C92         C  0.10385084  0.07180887  0.62982653     0.83700
C93         C  0.09108288  0.49421501  0.63187334     1.05300
H94         H  0.16728224  0.10358792  0.59520646     0.37100
O95         O  0.17526984  0.08966710  0.59688058    -1.11200
O96         O  0.21830956  0.07878199  0.62630036    -0.67800
Ni97       Ni  0.19104141  0.09478462  0.63371940     1.26300
O98         O  0.11473370  0.06584200  0.60800857    -0.68100
O99         O  0.22449900  0.13610931  0.62704664    -0.80400
C100        C  0.18573195  0.09604367  0.69144170     0.83100
O101        O  0.20393076  0.09815561  0.67182022    -0.67500
Ni102      Ni  0.20186582  0.09820937  0.56571545     1.27400
Ni103      Ni  0.14140136  0.04875972  0.60148862     1.26100
H104        H  0.16469051  0.03974930  0.64073584     0.37600
O105        O  0.08846713  0.15982779  0.31016727    -0.82300
O106        O  0.04356757  0.12586816  0.43374325    -0.67000
O107        O  0.05639985  0.15625694  0.35895639    -1.13600
C108        C  0.15388019  0.23186049  0.39563847     1.04600
O109        O  0.05973458  0.17317076  0.44933599    -0.80200
O110        O  0.09112265  0.22608265  0.42021241    -0.67800
Ni111      Ni  0.05011912  0.13041787  0.32758889     1.34900
C112        C  0.08297146  0.23128784  0.39684723     0.83300
O113        O  0.00851362  0.10674743  0.38828196    -0.80800
O114        O  0.01105385  0.09873112  0.34228956    -0.91000
C115        C  0.04258389  0.14404768  0.45186047     0.82900
O116        O  0.07057045  0.11032881  0.34188548    -0.69200
O117        O  0.14238589  0.22090332  0.41972588    -0.88500
C118        C  0.07329768  0.10226227  0.36622134     0.83700
C119        C  0.49697940  0.09119295  0.36577293     1.05300
H120        H  0.10433437  0.16218089  0.40162798     0.37100
O121        O  0.09127763  0.17125178  0.40097695    -1.11200
O122        O  0.08134130  0.21627876  0.37480269    -0.67800
Ni123      Ni  0.09743548  0.18966316  0.36509066     1.26300
O124        O  0.06474741  0.11063647  0.38820045    -0.68100
O125        O  0.13860670  0.22256773  0.37294289    -0.80400
C126        C  0.09739803  0.18818806  0.30691886     0.83100
O127        O  0.10136988  0.20538623  0.32786982    -0.67500
Ni128      Ni  0.10081027  0.19612791  0.43337274     1.27400
Ni129      Ni  0.04975429  0.13906914  0.39554617     1.26100
H130        H  0.04275864  0.16449618  0.35680374     0.37600
O131        O  0.41750051  0.07671324  0.68801711    -0.82300
O132        O  0.45611724  0.08349870  0.56271761    -0.67000
O133        O  0.44686181  0.10383907  0.63791470    -1.13600
C134        C  0.34695170  0.07843110  0.60573749     1.04600
O135        O  0.43825912  0.11301326  0.54734284    -0.80200
O136        O  0.40855856  0.13572784  0.57818339    -0.67800
Ni137      Ni  0.45481100  0.08528250  0.66872843     1.34900
C138        C  0.41765594  0.15002363  0.60124024     0.83300
O139        O  0.49365173  0.10203399  0.60640382    -0.80800
O140        O  0.49303806  0.09242831  0.65228356    -0.91000
C141        C  0.45559536  0.10130588  0.54428395     0.82900
O142        O  0.43366007  0.04416572  0.65497489    -0.69200
O143        O  0.35748305  0.07873512  0.58117456    -0.88500
C144        C  0.43027841  0.03278369  0.63065170     0.83700
C145        C  0.00585329  0.09849034  0.62889293     1.05300
H146        H  0.39711310  0.05959377  0.59732675     0.37100
O147        O  0.40988223  0.08179532  0.59744021    -1.11200
O148        O  0.42018819  0.13747329  0.62325646    -0.67800
Ni149      Ni  0.40530042  0.09521351  0.63363513     1.26300
O150        O  0.43803818  0.04918680  0.60861069    -0.68100
O151        O  0.36338950  0.08565938  0.62775909    -0.80400
C152        C  0.40821156  0.09581813  0.69175741     0.83100
O153        O  0.40305577  0.10822698  0.67108644    -0.67500
Ni154      Ni  0.39824344  0.09542890  0.56551694     1.27400
Ni155      Ni  0.45187521  0.09214826  0.60099897     1.26100
H156        H  0.46037929  0.12586599  0.63966318     0.37600
O157        O  0.07697160  0.15923621  0.18716722    -0.82300
O158        O  0.08324074  0.12645355  0.06284011    -0.67000
O159        O  0.10460487  0.15644554  0.13735879    -1.13600
C160        C  0.08425507  0.23387896  0.10345095     1.04600
O161        O  0.11603156  0.17331021  0.04742825    -0.80200
O162        O  0.14069952  0.22599401  0.07724609    -0.67800
Ni163      Ni  0.08635544  0.13054026  0.16885005     1.34900
C164        C  0.15398745  0.23120099  0.10066145     0.83300
O165        O  0.09992233  0.10620090  0.10667535    -0.80800
O166        O  0.09416516  0.09953507  0.15322467    -0.91000
C167        C  0.10273088  0.14409717  0.04475351     0.82900
O168        O  0.04519123  0.10918056  0.15583895    -0.69200
O169        O  0.08560045  0.22394007  0.07907248    -0.88500
C170        C  0.03312239  0.10229552  0.13185006     0.83700
C171        C  0.09836777  0.09157592  0.12886498     1.05300
H172        H  0.06230362  0.16432117  0.09610873     0.37100
O173        O  0.08435660  0.17268366  0.09655793    -1.11200
O174        O  0.14024981  0.21679788  0.12281046    -0.67800
Ni175      Ni  0.09751637  0.19034369  0.13262763     1.26300
O176        O  0.04887494  0.11213654  0.10931231    -0.68100
O177        O  0.08955467  0.22371760  0.12597624    -0.80400
C178        C  0.09574551  0.18776248  0.19071544     0.83100
O179        O  0.10978459  0.20514224  0.17007889    -0.67500
Ni180      Ni  0.10023885  0.19779266  0.06440865     1.27400
Ni181      Ni  0.09224817  0.13949931  0.10084854     1.26100
H182        H  0.12654243  0.16435456  0.13858266     0.37600
O183        O  0.16123695  0.07646052  0.81227054    -0.82300
O184        O  0.12889621  0.07949520  0.93650867    -0.67000
O185        O  0.15913792  0.10263019  0.86199582    -1.13600
C186        C  0.23458230  0.07814695  0.89357093     1.04600
O187        O  0.17598533  0.11065361  0.95175145    -0.80200
O188        O  0.22861433  0.13524675  0.92145201    -0.67800
Ni189      Ni  0.13291622  0.08591598  0.83072919     1.34900
C190        C  0.23399607  0.14935945  0.89830923     0.83300
O191        O  0.10924933  0.09817665  0.89365603    -0.80800
O192        O  0.10244068  0.09403532  0.84715363    -0.91000
C193        C  0.14685792  0.09820498  0.95467258     0.82900
O194        O  0.11096737  0.04431515  0.84301669    -0.69200
O195        O  0.22472097  0.07917139  0.91810146    -0.88500
C196        C  0.10436006  0.03155875  0.86683304     0.83700
C197        C  0.09473310  0.09769867  0.87181676     1.05300
H198        H  0.16561403  0.05809417  0.90179985     0.37100
O199        O  0.17450221  0.08023593  0.90174706    -1.11200
O200        O  0.21964232  0.13636613  0.87610300    -0.67800
Ni201      Ni  0.19241401  0.09410982  0.86564071     1.26300
O202        O  0.11423230  0.04660692  0.88951553    -0.68100
O203        O  0.22498263  0.08463181  0.87132691    -0.80400
C204        C  0.18926382  0.09628010  0.80785859     0.83100
O205        O  0.20759479  0.10762654  0.82820033    -0.67500
Ni206      Ni  0.19958386  0.09446541  0.93374039     1.27400
Ni207      Ni  0.14205727  0.08945849  0.89849613     1.26100
H208        H  0.16763009  0.12471310  0.86120438     0.37600
O209        O  0.08034038  0.41977308  0.19099271    -0.82300
O210        O  0.04264301  0.41352155  0.06448870    -0.67000
O211        O  0.05208165  0.39439784  0.13964460    -1.13600
C212        C  0.15089016  0.41683921  0.10377537     1.04600
O213        O  0.05840048  0.38184236  0.04945212    -0.80200
O214        O  0.08827393  0.35941380  0.07903733    -0.67800
Ni215      Ni  0.04549337  0.41493105  0.17029060     1.34900
C216        C  0.07978687  0.34608618  0.10257435     0.83300
O217        O  0.00555319  0.39676107  0.10906315    -0.80800
O218        O  0.00923921  0.41183917  0.15369484    -0.91000
C219        C  0.04206340  0.39455350  0.04643148     0.82900
O220        O  0.07082752  0.45531427  0.15590214    -0.69200
O221        O  0.13990972  0.41577943  0.07955926    -0.88500
C222        C  0.07233378  0.46607919  0.13167706     0.83700
C223        C  0.49412996  0.40232040  0.13005723     1.05300
H224        H  0.10174081  0.43686815  0.09704526     0.37100
O225        O  0.08852130  0.41471672  0.09780409    -1.11200
O226        O  0.07763795  0.35943612  0.12444428    -0.67800
Ni227      Ni  0.09333288  0.40212106  0.13383595     1.26300
O228        O  0.06184258  0.44893956  0.11011083    -0.68100
O229        O  0.13494267  0.41078904  0.12640394    -0.80400
C230        C  0.09217497  0.40257407  0.19245340     0.83100
O231        O  0.09625956  0.38999677  0.17100368    -0.67500
Ni232      Ni  0.09884283  0.39936767  0.06566883     1.27400
Ni233      Ni  0.04698623  0.40554810  0.10270219     1.26100
H234        H  0.03818654  0.37253511  0.14203777     0.37600
O235        O  0.42197294  0.33622217  0.80842641    -0.82300
O236        O  0.45734621  0.36990372  0.93493999    -0.67000
O237        O  0.44798596  0.33838416  0.86042156    -1.13600
C238        C  0.34780021  0.26509869  0.89628808     1.04600
O239        O  0.44031567  0.32273426  0.95070266    -0.80200
O240        O  0.40984888  0.26980094  0.92162729    -0.67800
Ni241      Ni  0.45785382  0.36485293  0.82892577     1.34900
C242        C  0.41758756  0.26348437  0.89822416     0.83300
O243        O  0.49512503  0.38747957  0.89114553    -0.80800
O244        O  0.49532341  0.39665520  0.84540950    -0.91000
C245        C  0.45728146  0.35181407  0.95339251     0.82900
O246        O  0.43593833  0.38457296  0.84147268    -0.69200
O247        O  0.35908491  0.27567932  0.92032242    -0.88500
C248        C  0.43278880  0.39361140  0.86548494     0.83700
C249        C  0.00818172  0.40348666  0.86961066     1.05300
H250        H  0.39860209  0.33454323  0.90218014     0.37100
O251        O  0.41110745  0.32483913  0.90171248    -1.11200
O252        O  0.41946117  0.27793117  0.87589920    -0.67800
Ni253      Ni  0.40577080  0.30626478  0.86586558     1.26300
O254        O  0.44005843  0.38538816  0.88796229    -0.68100
O255        O  0.36342367  0.27453620  0.87341063    -0.80400
C256        C  0.40801063  0.30697900  0.80702207     0.83100
O257        O  0.40225077  0.29025243  0.82859270    -0.67500
Ni258      Ni  0.40002474  0.30012058  0.93424456     1.27400
Ni259      Ni  0.45315398  0.35604365  0.89699329     1.26100
H260        H  0.46089561  0.32918571  0.85905748     0.37600
O261        O  0.33863841  0.41661328  0.18889999    -0.82300
O262        O  0.37221261  0.45620554  0.06316713    -0.67000
O263        O  0.34113576  0.44581941  0.13827694    -1.13600
C264        C  0.26606370  0.34752345  0.10254671     1.04600
O265        O  0.32538276  0.44109028  0.04800468    -0.80200
O266        O  0.27284616  0.41270175  0.07823806    -0.67800
Ni267      Ni  0.36746496  0.45357004  0.16928351     1.34900
C268        C  0.26665944  0.41937045  0.10218116     0.83300
O269        O  0.39080252  0.49278161  0.10755793    -0.80800
O270        O  0.39918724  0.49163779  0.15331511    -0.91000
C271        C  0.35452911  0.45691624  0.04484922     0.82900
O272        O  0.38686235  0.43190803  0.15520519    -0.69200
O273        O  0.27535054  0.35972340  0.07842798    -0.88500
C274        C  0.39503576  0.42853226  0.13085311     0.83700
C275        C  0.40776064  0.00239390  0.13362705     1.05300
H276        H  0.33517400  0.39677062  0.09520874     0.37100
O277        O  0.32623158  0.40993695  0.09644321    -1.11200
O278        O  0.28035615  0.41899416  0.12420597    -0.67800
Ni279      Ni  0.30824052  0.40425337  0.13284506     1.26300
O280        O  0.38675015  0.43650635  0.10885673    -0.68100
O281        O  0.27619042  0.36237932  0.12549879    -0.80400
C282        C  0.30967620  0.40480198  0.19153174     0.83100
O283        O  0.29277359  0.40045390  0.17052482    -0.67500
Ni284      Ni  0.30120878  0.40071480  0.06450753     1.27400
Ni285      Ni  0.35848781  0.45140302  0.10134132     1.26100
H286        H  0.33259325  0.45928302  0.14029119     0.37600
O287        O  0.42795510  0.08313525  0.81084020    -0.82300
O288        O  0.41432083  0.03925222  0.93576641    -0.67000
O289        O  0.39887889  0.05119327  0.86006874    -1.13600
C290        C  0.41600251  0.14762989  0.89690304     1.04600
O291        O  0.38158848  0.05402973  0.94985941    -0.80200
O292        O  0.35903434  0.08306447  0.91963751    -0.67800
Ni293      Ni  0.42111084  0.04635084  0.82986066     1.34900
C294        C  0.34691059  0.07498421  0.89571652     0.83300
O295        O  0.40054368  0.00404568  0.89018603    -0.80800
O296        O  0.41593350  0.00853307  0.84533428    -0.91000
C297        C  0.39511637  0.03863023  0.95371911     0.82900
O298        O  0.46078227  0.07002595  0.84584226    -0.69200
O299        O  0.41429769  0.13594988  0.92095467    -0.88500
C300        C  0.47026526  0.07161286  0.87055314     0.83700
C301        C  0.40992919  0.49496101  0.86467047     1.05300
H302        H  0.43816027  0.09973085  0.90406855     0.37100
O303        O  0.41615625  0.08611619  0.90261031    -1.11200
O304        O  0.36167733  0.07437499  0.87418706    -0.67800
Ni305      Ni  0.40495359  0.09173192  0.86618413     1.26300
O306        O  0.45206019  0.06089432  0.89157406    -0.68100
O307        O  0.41176255  0.13266742  0.87399106    -0.80400
C308        C  0.40917492  0.09292741  0.80786238     0.83100
O309        O  0.39439933  0.09526938  0.82855130    -0.67500
Ni310      Ni  0.39862533  0.09471123  0.93422451     1.27400
Ni311      Ni  0.40820615  0.04495758  0.89727593     1.26100
H312        H  0.37725779  0.03692469  0.85694519     0.37600
C313        C  0.34886324  0.48908514  0.00886794    -0.14800
C314        C  0.36709264  0.47817652  0.02064214     0.07400
C315        C  0.39643486  0.48766091  0.00892416    -0.14800
C316        C  0.40333163  0.00490806  0.98771284    -0.14800
C317        C  0.38606231  0.01827740  0.97858807     0.07400
C318        C  0.35910976  0.01189285  0.99345799    -0.14800
H319        H  0.32627012  0.48242987  0.01747564     0.11400
H320        H  0.41094142  0.47954153  0.01759168     0.11400
H321        H  0.42421368  0.00944591  0.97670611     0.11400
H322        H  0.34518998  0.02171778  0.98709360     0.11400
C323        C  0.41196204  0.42378092  0.84221460    -0.14800
C324        C  0.42157766  0.41594927  0.86677848     0.07400
C325        C  0.42328823  0.43193884  0.89158041    -0.14800
C326        C  0.41733212  0.45645137  0.89137692    -0.14800
C327        C  0.40987678  0.46552405  0.86633304     0.07400
C328        C  0.40639106  0.44840852  0.84196673    -0.14800
H329        H  0.41006824  0.41178132  0.82277553     0.11400
H330        H  0.43068717  0.42653705  0.91081570     0.11400
H331        H  0.42044133  0.46950338  0.91039746     0.11400
H332        H  0.40047468  0.45482432  0.82243080     0.11400
C333        C  0.42151968  0.22206226  0.87147738    -0.20800
C334        C  0.42289287  0.23688802  0.89696363     0.07400
C335        C  0.42568071  0.22382847  0.92181212    -0.14800
C336        C  0.42520660  0.19575263  0.92144117    -0.14800
C337        C  0.42173141  0.17976483  0.89621353     0.07400
C338        C  0.42084339  0.19369894  0.87110900    -0.14800
H339        H  0.41928292  0.23150974  0.85195670     0.11400
H340        H  0.42701445  0.23471011  0.94178731     0.11400
H341        H  0.42622233  0.18596636  0.94121524     0.11400
H342        H  0.41825898  0.18208781  0.85131418     0.11400
C343        C  0.01001367  0.35537124  0.01097563    -0.14800
C344        C  0.02042632  0.38468119  0.02273143     0.07400
C345        C  0.00986117  0.40365197  0.01167638    -0.14800
C346        C  0.48958893  0.39324886  0.98851456    -0.14800
C347        C  0.47898696  0.36370438  0.97705670     0.07400
C348        C  0.48929965  0.34475397  0.98846208    -0.14800
H349        H  0.01750247  0.34009791  0.01912236     0.11400
H350        H  0.01753607  0.42635385  0.02038549     0.11400
H351        H  0.48193662  0.40828258  0.98012953     0.11400
H352        H  0.48172553  0.32195441  0.98000686     0.11400
C353        C  0.45577461  0.41029844  0.10333114    -0.14800
C354        C  0.46470623  0.40239666  0.12824832     0.07400
C355        C  0.44770117  0.39905976  0.15278519    -0.14800
C356        C  0.42378501  0.40562874  0.15299823    -0.14800
C357        C  0.41635340  0.41604172  0.12871007     0.07400
C358        C  0.43181274  0.41718594  0.10357467    -0.14800
H359        H  0.46861441  0.41317370  0.08412529     0.11400
H360        H  0.95512963  0.39471052  0.17297965     0.11400
H361        H  0.41212254  0.40397187  0.17266810     0.11400
H362        H  0.42656126  0.42498349  0.08448030     0.11400
C363        C  0.20145186  0.43155318  0.08050883    -0.14800
C364        C  0.18343219  0.42393625  0.10509617     0.07400
C365        C  0.19574297  0.41992728  0.12991693    -0.14800
C366        C  0.22424208  0.42093177  0.12956172    -0.14800
C367        C  0.24082805  0.42579443  0.10435752     0.07400
C368        C  0.22970958  0.43239316  0.08013706    -0.14800
H369        H  0.19302104  0.43529660  0.06107129     0.11400
H370        H  0.18260029  0.41425045  0.14926791     0.11400
H371        H  0.23221746  0.41581005  0.14860142     0.11400
H372        H  0.24210639  0.43664590  0.06045997     0.11400
C373        C  0.27346940  0.19576207  0.87140043    -0.14800
C374        C  0.25940913  0.18191901  0.89704033     0.07400
C375        C  0.27228845  0.19816665  0.92183990    -0.14800
C376        C  0.29978763  0.22637719  0.92123059    -0.14800
C377        C  0.31543686  0.23902450  0.89580809     0.07400
C378        C  0.30133057  0.22399732  0.87079081    -0.14800
H379        H  0.26401456  0.18387706  0.85188725     0.11400
H380        H  0.26188554  0.18839678  0.94192106     0.11400
H381        H  0.30965186  0.23733094  0.94098001     0.11400
H382        H  0.31259456  0.23316188  0.85085834     0.11400
C383        C  0.08039847  0.47643061  0.84858027    -0.14800
C384        C  0.08325317  0.99772911  0.86773052     0.07400
C385        C  0.06762153  0.48205154  0.89638861    -0.14800
C386        C  0.04398398  0.45107113  0.89643675    -0.14800
C387        C  0.03760494  0.43297229  0.87213661     0.07400
C388        C  0.05678413  0.44567318  0.84858748    -0.14800
H389        H  0.08585584  0.99154879  0.82302513     0.11400
H390        H  0.07080361  0.49602169  0.91478223     0.11400
H391        H  0.02931908  0.44197168  0.91479933     0.11400
H392        H  0.55243445  0.43211175  0.82967591     0.11400
C393        C  0.27743894  0.07596013  0.86724823    -0.14800
C394        C  0.25958872  0.07045713  0.89171772     0.07400
C395        C  0.26817706  0.06093430  0.91591483    -0.14800
C396        C  0.29548184  0.05998747  0.91650064    -0.14800
C397        C  0.31475234  0.06817850  0.89282933     0.07400
C398        C  0.30478604  0.07470962  0.86778204    -0.14800
H399        H  0.27137769  0.08313671  0.84823039     0.11400
H400        H  0.25472126  0.05590723  0.93503722     0.11400
H401        H  0.30236853  0.05448846  0.93599081     0.11400
H402        H  0.31925186  0.08115838  0.84920338     0.11400
C403        C  0.04690642  0.08649958  0.89863189    -0.14800
C404        C  0.06602007  0.09905998  0.87490896     0.07400
C405        C  0.05490815  0.10780620  0.85205635    -0.14800
C406        C  0.02445483  0.10143181  0.85175503    -0.14800
C407        C  0.50396473  0.08500479  0.87421509     0.07400
C408        C  0.01618322  0.07984401  0.89824813    -0.14800
H409        H  0.05487490  0.07948752  0.91655208     0.11400
H410        H  0.06922595  0.11787975  0.83364025     0.11400
H411        H  0.01623528  0.10698537  0.83310602     0.11400
H412        H  0.50090295  0.06689827  0.91583970     0.11400
C413        C  0.48417352  0.06743226  0.10624394    -0.14800
C414        C  0.99930279  0.08061985  0.13076037     0.07400
C415        C  0.48244200  0.07102502  0.15659435    -0.14800
C416        C  0.45202515  0.04681220  0.15695490    -0.14800
C417        C  0.43747242  0.03188273  0.13212054     0.07400
C418        C  0.45338564  0.04320280  0.10660459    -0.14800
H419        H  0.99691826  0.07353091  0.08593140     0.11400
H420        H  0.49311416  0.08105640  0.17637683     0.11400
H421        H  0.44027431  0.03889631  0.17691499     0.11400
H422        H  0.44466429  0.52882806  0.08396528     0.11400
C423        C  0.19875210  0.27161362  0.12785671    -0.14800
C424        C  0.18627481  0.25686397  0.10227050     0.07400
C425        C  0.20308536  0.26991191  0.07756159    -0.14800
C426        C  0.23018720  0.29841167  0.07805779    -0.14800
C427        C  0.24114991  0.31472465  0.10327588     0.07400
C428        C  0.22595029  0.30038561  0.12835213    -0.14800
H429        H  0.18638724  0.26204458  0.14729026     0.11400
H430        H  0.19437318  0.25894436  0.05755045     0.11400
H431        H  0.24157237  0.30839514  0.05834703     0.11400
H432        H  0.23399450  0.31214468  0.14815820     0.11400
C433        C  0.06731472  0.29590754  0.08059199    -0.14800
C434        C  0.07428960  0.31425941  0.10465827     0.07400
C435        C  0.08059674  0.30379474  0.12953540    -0.14800
C436        C  0.08224138  0.27665570  0.12971249    -0.14800
C437        C  0.07738512  0.25944877  0.10504773     0.07400
C438        C  0.06870597  0.26878351  0.08080676    -0.14800
H439        H  0.06215305  0.30327387  0.06118862     0.11400
H440        H  0.08629835  0.31762839  0.14836364     0.11400
H441        H  0.08891980  0.27009657  0.14873719     0.11400
H442        H  0.06435334  0.25589451  0.06151375     0.11400
C443        C  0.08854458  0.04433932  0.10206593    -0.14800
C444        C  0.09897855  0.06242721  0.12644465     0.07400
C445        C  0.10488212  0.04999990  0.15013904    -0.14800
C446        C  0.09782267  0.01932104  0.15037951    -0.14800
C447        C  0.08510444  0.49987528  0.12928280     0.07400
C448        C  0.08125676  0.01339678  0.10235517    -0.14800
H449        H  0.08374601  0.05332913  0.08347389     0.11400
H450        H  0.11328245  0.06347662  0.16910343     0.11400
H451        H  0.10123282  0.01010833  0.16953536     0.11400
H452        H  0.07393239  0.49950064  0.08564342     0.11400
C453        C  0.10399275  0.09115104  0.98778627    -0.14800
C454        C  0.13465781  0.10860719  0.97808705     0.07400
C455        C  0.15417193  0.13733598  0.99050378    -0.14800
C456        C  0.14338443  0.14863298  0.01180502    -0.14800
C457        C  0.11294493  0.13127475  0.02178024     0.07400
C458        C  0.09333138  0.10222418  0.00982871    -0.14800
H459        H  0.08844306  0.06896354  0.97851428     0.11400
H460        H  0.17782565  0.15150030  0.98340352     0.11400
H461        H  0.15912487  0.17096105  0.02075869     0.11400
H462        H  0.06974284  0.08841750  0.01719413     0.11400
C463        C  0.37741282  0.08385050  0.73587892    -0.14800
C464        C  0.40447366  0.10328345  0.72076731     0.07400
C465        C  0.43117307  0.12380573  0.73529944    -0.14800
C466        C  0.43173245  0.12284705  0.76442940    -0.14800
C467        C  0.40544706  0.10166731  0.77950211     0.07400
C468        C  0.37780976  0.08329157  0.76517717    -0.14800
H469        H  0.35686530  0.06719436  0.72502267     0.11400
H470        H  0.45248443  0.13836249  0.72400252     0.11400
H471        H  0.45339874  0.13677550  0.77503566     0.11400
H472        H  0.35749505  0.06624632  0.77637750     0.11400
C473        C  0.50758789  0.14978775  0.48499634    -0.14800
C474        C  0.01973328  0.13203038  0.47517360     0.07400
C475        C  0.00948405  0.10282151  0.48705699    -0.14800
C476        C  0.98871068  0.09270689  0.50985169    -0.14800
C477        C  0.47714946  0.11095939  0.51999357     0.07400
C478        C  0.48627376  0.13939146  0.50704173    -0.14800
H479        H  0.51435383  0.17200603  0.47574662     0.11400
H480        H  0.01805349  0.08817151  0.47914169     0.11400
H481        H  0.98156077  0.07037875  0.51902189     0.11400
H482        H  0.47742378  0.15402467  0.51436836     0.11400
C483        C  0.12804027  0.20662910  0.26267915    -0.14800
C484        C  0.10138277  0.19974268  0.27819619     0.07400
C485        C  0.07508466  0.19538602  0.26423609    -0.14800
C486        C  0.07443271  0.19508522  0.23508347    -0.14800
C487        C  0.10025436  0.19963920  0.21946292     0.07400
C488        C  0.12758782  0.20694755  0.23338793    -0.14800
H489        H  0.14823680  0.20914103  0.27308146     0.11400
H490        H  0.05405066  0.18917881  0.27584017     0.11400
H491        H  0.05292815  0.18865010  0.22475064     0.11400
H492        H  0.14745606  0.20963374  0.22170530     0.11400
C493        C  0.18285249  0.11952473  0.73611151    -0.14800
C494        C  0.19647329  0.10576880  0.72022369     0.07400
C495        C  0.21422573  0.09525498  0.73375535    -0.14800
C496        C  0.21520024  0.09525095  0.76309473    -0.14800
C497        C  0.19877818  0.10615367  0.77886030     0.07400
C498        C  0.18402386  0.11972637  0.76514430    -0.14800
H499        H  0.16902451  0.12774013  0.72614703     0.11400
H500        H  0.22457783  0.08419496  0.72189334     0.11400
H501        H  0.22620425  0.08415265  0.77335863     0.11400
H502        H  0.17093560  0.12792177  0.77697610     0.11400
C503        C  0.27494686  0.07773783  0.63221620    -0.14800
C504        C  0.25753520  0.07007588  0.60764107     0.07400
C505        C  0.26735051  0.06004125  0.58427539    -0.14800
C506        C  0.29534493  0.06037606  0.58454310    -0.14800
C507        C  0.31437221  0.07102427  0.60811665     0.07400
C508        C  0.30320533  0.07828361  0.63243770    -0.14800
H509        H  0.26795965  0.08562029  0.65054624     0.11400
H510        H  0.25422252  0.05362043  0.56516536     0.11400
H511        H  0.30291002  0.05404675  0.56560520     0.11400
H512        H  0.31719627  0.08640579  0.65100105     0.11400
C513        C  0.07693889  0.09763512  0.65099087    -0.14800
C514        C  0.08347659  0.08515324  0.62722431     0.07400
C515        C  0.06781169  0.08260637  0.60232431    -0.14800
C516        C  0.04409987  0.08976889  0.60200622    -0.14800
C517        C  0.03575565  0.09946603  0.62659801     0.07400
C518        C  0.05333610  0.10464191  0.65069114    -0.14800
H519        H  0.08898303  0.10046933  0.67037594     0.11400
H520        H  0.07243789  0.07316614  0.58366728     0.11400
H521        H  0.53051518  0.08495523  0.58269738     0.11400
H522        H  0.04763115  0.11239845  0.66986488     0.11400
C523        C  0.09276275  0.48614533  0.48998520    -0.14800
C524        C  0.11283823  0.47816871  0.47635862     0.07400
C525        C  0.14340821  0.49155177  0.48538357    -0.14800
C526        C  0.15383491  0.51239181  0.50752911    -0.14800
C527        C  0.13641513  0.02299834  0.52025301     0.07400
C528        C  0.10558995  0.00954641  0.51156536    -0.14800
H529        H  0.06904614  0.47603969  0.48340602     0.11400
H530        H  0.15944958  0.48601993  0.47512059     0.11400
H531        H  0.17760234  0.52213791  0.51385227     0.11400
H532        H  0.08963779  0.01476870  0.52240906     0.11400
C533        C  0.09043570  0.04148095  0.39350702    -0.14800
C534        C  0.09891497  0.03231648  0.36863396     0.07400
C535        C  0.10325475  0.04940285  0.34422463    -0.14800
C536        C  0.09690446  0.07350513  0.34409393    -0.14800
C537        C  0.08574436  0.08097857  0.36831330     0.07400
C538        C  0.08380153  0.06556758  0.39333432    -0.14800
H539        H  0.09471637  0.53399788  0.41296989     0.11400
H540        H  0.11004835  0.04312170  0.32480391     0.11400
H541        H  0.09923661  0.08522168  0.32452086     0.11400
H542        H  0.07548248  0.07088470  0.41237283     0.11400
C543        C  0.07077538  0.29662160  0.41966924    -0.14800
C544        C  0.07733711  0.31391033  0.39495200     0.07400
C545        C  0.08161470  0.30147426  0.36995792    -0.14800
C546        C  0.08130491  0.27332728  0.37011237    -0.14800
C547        C  0.07691051  0.25726490  0.39528135     0.07400
C548        C  0.07067983  0.26873538  0.41984131    -0.14800
H549        H  0.06708381  0.30528282  0.43927178     0.11400
H550        H  0.08673134  0.31417994  0.35055346     0.11400
H551        H  0.08636053  0.26512165  0.35087672     0.11400
H552        H  0.06698003  0.25676136  0.43951207     0.11400
C553        C  0.08120513  0.37084206  0.26438004    -0.14800
C554        C  0.10205848  0.39744725  0.27900722     0.07400
C555        C  0.12425001  0.42321735  0.26407137    -0.14800
C556        C  0.12358038  0.42355501  0.23490567    -0.14800
C557        C  0.10102826  0.39792410  0.22032069     0.07400
C558        C  0.08091428  0.37097135  0.23511847    -0.14800
H559        H  0.06335751  0.35108594  0.27556385     0.11400
H560        H  0.13993318  0.44424750  0.27501235     0.11400
H561        H  0.13873076  0.44480978  0.22390999     0.11400
H562        H  0.06278446  0.35129340  0.22427379     0.11400
C563        C  0.37380271  0.29776916  0.73701003    -0.14800
C564        C  0.39596498  0.29568994  0.72034242     0.07400
C565        C  0.41720847  0.28932632  0.73311337    -0.14800
C566        C  0.41813782  0.28813366  0.76235861    -0.14800
C567        C  0.39800624  0.29353007  0.77904928     0.07400
C568        C  0.37485040  0.29676831  0.76612687    -0.14800
H569        H  0.35775995  0.30351140  0.72762166     0.11400
H570        H  0.43505603  0.28855284  0.72071652     0.11400
H571        H  0.43680221  0.28659067  0.77189309     0.11400
H572        H  0.35973642  0.30192292  0.77853647     0.11400
C573        C  0.27835283  0.19595135  0.63034603    -0.14800
C574        C  0.26201154  0.18322093  0.60556195     0.07400
C575        C  0.27228860  0.20070678  0.58086921    -0.14800
C576        C  0.29959669  0.22900071  0.58036362    -0.14800
C577        C  0.31729608  0.24062263  0.60454871     0.07400
C578        C  0.30579964  0.22449649  0.62984897    -0.14800
H579        H  0.27094668  0.18310880  0.64972635     0.11400
H580        H  0.25999606  0.19187919  0.56148543     0.11400
H581        H  0.30763483  0.24106396  0.56064060     0.11400
H582        H  0.31899678  0.23290084  0.64884061     0.11400
C583        C  0.04495313  0.45508560  0.60539479    -0.14800
C584        C  0.06198531  0.46421770  0.63022015     0.07400
C585        C  0.04863438  0.44698364  0.65460694    -0.14800
C586        C  0.01823766  0.42258180  0.65470643    -0.14800
C587        C  0.50054856  0.41502330  0.62949858     0.07400
C588        C  0.01431518  0.43076193  0.60554318    -0.14800
H589        H  0.05455410  0.46806771  0.58630289     0.11400
H590        H  0.06120883  0.45333298  0.67402509     0.11400
H591        H  0.50881620  0.41021639  0.67309987     0.11400
H592        H  0.00118792  0.42545658  0.58649789     0.11400
C593        C  0.42950677  0.22727481  0.57831147    -0.14800
C594        C  0.42510265  0.23940085  0.60346918     0.07400
C595        C  0.42219186  0.22355096  0.62848376    -0.14800
C596        C  0.42176456  0.19530819  0.62805017    -0.14800
C597        C  0.42398006  0.18227844  0.60258553     0.07400
C598        C  0.42877879  0.19904985  0.57786452    -0.14800
H599        H  0.43203945  0.23883934  0.55861169     0.11400
H600        H  0.41867738  0.23213567  0.64820603     0.11400
H601        H  0.41790405  0.18284372  0.64745218     0.11400
H602        H  0.43081246  0.18978839  0.55793846     0.11400
C603        C  0.39625483  0.44846685  0.64874991    -0.14800
C604        C  0.40305675  0.43628183  0.62506131     0.07400
C605        C  0.41328529  0.45395435  0.60048954    -0.14800
C606        C  0.41905735  0.48441089  0.60044440    -0.14800
C607        C  0.41781933  0.99900603  0.62846524     0.07400
C608        C  0.40162986  0.47855458  0.64863135    -0.14800
H609        H  0.38808897  0.43514290  0.66784417     0.11400
H610        H  0.41887365  0.44501764  0.58201498     0.11400
H611        H  0.42890837  0.49833445  0.58187397     0.11400
H612        H  0.40459102  0.99037712  0.67227630     0.11400
C613        C  0.29276180  0.41701555  0.26504757    -0.14800
C614        C  0.29767551  0.39526884  0.27888889     0.07400
C615        C  0.29909752  0.37220461  0.26319135    -0.14800
C616        C  0.29883153  0.37277560  0.23396502    -0.14800
C617        C  0.29673283  0.39619154  0.22001786     0.07400
C618        C  0.29205235  0.41732114  0.23576526    -0.14800
H619        H  0.29248602  0.43550849  0.27670141     0.11400
H620        H  0.30371452  0.35572514  0.27340878     0.11400
H621        H  0.30332082  0.35679793  0.22227064     0.11400
H622        H  0.29133547  0.43613322  0.22545263     0.11400
C623        C  0.34740464  0.35750909  0.48882549    -0.14800
C624        C  0.36619323  0.38688772  0.47710178     0.07400
C625        C  0.39609112  0.40547822  0.48768908    -0.14800
C626        C  0.40656054  0.39503628  0.50999697    -0.14800
C627        C  0.38765395  0.36545811  0.52144121     0.07400
C628        C  0.35808442  0.34684167  0.51039251    -0.14800
H629        H  0.32438291  0.34244940  0.48105381     0.11400
H630        H  0.41112535  0.42818616  0.47902596     0.11400
H631        H  0.42948827  0.40985737  0.51804677     0.11400
H632        H  0.34285281  0.32402444  0.51878020     0.11400
C633        C  0.43094087  0.01573885  0.39303966    -0.14800
C634        C  0.41797912  0.50082074  0.36822068     0.07400
C635        C  0.42776267  0.51812851  0.34335064    -0.14800
C636        C  0.45107190  0.04799072  0.34260469    -0.14800
C637        C  0.46676600  0.06219165  0.36728356     0.07400
C638        C  0.45561027  0.04622897  0.39269994    -0.14800
H639        H  0.42404917  0.00341718  0.41269953     0.11400
H640        H  0.41723932  0.50787497  0.32358009     0.11400
H641        H  0.45885366  0.05970583  0.32270386     0.11400
H642        H  0.46720110  0.05652812  0.41209439     0.11400
C643        C  0.23139025  0.29610867  0.41952140    -0.14800
C644        C  0.24221663  0.31475091  0.39559565     0.07400
C645        C  0.22593325  0.30367063  0.37052859    -0.14800
C646        C  0.19806248  0.27560760  0.36999018    -0.14800
C647        C  0.18607106  0.25801350  0.39448204     0.07400
C648        C  0.20372750  0.26798743  0.41893992    -0.14800
H649        H  0.24361345  0.30391976  0.43905835     0.11400
H650        H  0.23365078  0.31762377  0.35177475     0.11400
H651        H  0.18509378  0.26863189  0.35079806     0.11400
H652        H  0.19540517  0.25486963  0.43811600     0.11400
C653        C  0.44961396  0.39646212  0.34796890    -0.14800
C654        C  0.43731794  0.40278119  0.37190114     0.07400
C655        C  0.45506054  0.41278337  0.39629035    -0.14800
C656        C  0.48552125  0.41859335  0.39597363    -0.14800
C657        C  0.99829809  0.41382093  0.37171878     0.07400
C658        C  0.47971994  0.40193554  0.34771497    -0.14800
H659        H  0.43635141  0.38853199  0.32896789     0.11400
H660        H  0.44613461  0.41806063  0.41497190     0.11400
H661        H  0.99981544  0.42902817  0.41450158     0.11400
H662        H  0.48876513  0.39792667  0.32845617     0.11400
C663        C  0.20206331  0.43175839  0.41941036    -0.14800
C664        C  0.18477734  0.42564101  0.39498187     0.07400
C665        C  0.19701393  0.42167923  0.36969398    -0.14800
C666        C  0.22462623  0.42094967  0.36942423    -0.14800
C667        C  0.24049454  0.42437212  0.39441863     0.07400
C668        C  0.22959059  0.43120558  0.41912779    -0.14800
H669        H  0.19345876  0.43531895  0.43914285     0.11400
H670        H  0.18419264  0.41694086  0.35050782     0.11400
H671        H  0.23251246  0.41589624  0.34998758     0.11400
H672        H  0.24143548  0.43450470  0.43870008     0.11400
O673        O  0.34027673  0.91560267  0.30832762    -0.82300
O674        O  0.37295644  0.91829577  0.43689137    -0.67000
O675        O  0.34331417  0.89516512  0.36232574    -1.13600
C676        C  0.26776932  0.91952086  0.39599496     1.04600
O677        O  0.32584592  0.88679412  0.45279080    -0.80200
O678        O  0.27367262  0.86180809  0.42288153    -0.67800
Ni679      Ni  0.37047027  0.91357011  0.33120543     1.34900
C680        C  0.26844602  0.84838421  0.39933626     0.83300
O681        O  0.39208304  0.89835011  0.39388831    -0.80800
O682        O  0.40383293  0.91241952  0.34921385    -0.91000
C683        C  0.35498233  0.89945729  0.45517501     0.82900
O684        O  0.38488786  0.95477852  0.34334707    -0.69200
O685        O  0.27650401  0.91756523  0.42049742    -0.88500
C686        C  0.39508428  0.96691658  0.36706381     0.83700
C687        C  0.40953231  0.90446465  0.37256007     1.05300
H688        H  0.33705574  0.93994441  0.40360775     0.37100
O689        O  0.32799121  0.91776758  0.40316279    -1.11200
O690        O  0.28288403  0.86202704  0.37719581    -0.67800
Ni691      Ni  0.31059526  0.90427177  0.36719306     1.26300
O692        O  0.38882437  0.95099773  0.38943372    -0.68100
O693        O  0.27854657  0.91416249  0.37363035    -0.80400
C694        C  0.31100224  0.90054973  0.30825006     0.83100
O695        O  0.29494665  0.89111960  0.33042893    -0.67500
Ni696      Ni  0.30207766  0.90269385  0.43536013     1.27400
Ni697      Ni  0.36002977  0.90814582  0.39901416     1.26100
H698        H  0.33484357  0.87311063  0.36096913     0.37600
O699        O  0.42123599  0.83829643  0.68869786    -0.82300
O700        O  0.41646031  0.87182113  0.56294196    -0.67000
O701        O  0.39584929  0.84153095  0.63776251    -1.13600
C702        C  0.41852273  0.76568279  0.60158153     1.04600
O703        O  0.38509742  0.82474574  0.54737556    -0.80200
O704        O  0.36144123  0.77188347  0.57704018    -0.67800
Ni705      Ni  0.41489062  0.86793841  0.66884667     1.34900
C706        C  0.34796584  0.76638535  0.60070106     0.83300
O707        O  0.39867195  0.89100859  0.60746565    -0.80800
O708        O  0.41016355  0.90044820  0.65286147    -0.91000
C709        C  0.39784617  0.85391773  0.54469480     0.82900
O710        O  0.45591357  0.88578839  0.65483122    -0.69200
O711        O  0.41739082  0.77575532  0.57742260    -0.88500
C712        C  0.46732116  0.89467316  0.63056244     0.83700
C713        C  0.40346303  0.90728951  0.62936598     1.05300
H714        H  0.43904696  0.83527621  0.59501067     0.37100
O715        O  0.41691649  0.82630032  0.59586077    -1.11200
O716        O  0.36135504  0.78112551  0.62267647    -0.67800
Ni717      Ni  0.40391994  0.80828236  0.63188792     1.26300
O718        O  0.45086653  0.88707471  0.60866051    -0.68100
O719        O  0.41283345  0.77560386  0.62434433    -0.80400
C720        C  0.40411594  0.80920836  0.69037396     0.83100
O721        O  0.39156496  0.79268911  0.66905515    -0.67500
Ni722      Ni  0.40176600  0.80109832  0.56366256     1.27400
Ni723      Ni  0.40767917  0.85858311  0.60098795     1.26100
H724        H  0.37386169  0.83325921  0.63986592     0.37600
O725        O  0.07358253  0.91006964  0.31337442    -0.82300
O726        O  0.08523918  0.95548514  0.43504499    -0.67000
O727        O  0.10368394  0.94315836  0.36021602    -1.13600
C728        C  0.08508103  0.84685625  0.39729778     1.04600
O729        O  0.11747309  0.94108597  0.45043942    -0.80200
O730        O  0.14184929  0.91318315  0.42023248    -0.67800
Ni731      Ni  0.08407666  0.94935123  0.32931550     1.34900
C732        C  0.15432065  0.92014182  0.39616294     0.83300
O733        O  0.10059406  0.99032674  0.38947518    -0.80800
O734        O  0.09292054  0.98913184  0.34315686    -0.91000
C735        C  0.10464508  0.95744570  0.45279317     0.82900
O736        O  0.04367827  0.93066702  0.34477612    -0.69200
O737        O  0.08732430  0.85911386  0.42133309    -0.88500
C738        C  0.03284018  0.92667809  0.36944115     0.83700
C739        C  0.09669840  0.50144217  0.36713768     1.05300
H740        H  0.06282611  0.89487755  0.40440516     0.37100
O741        O  0.08486327  0.90844769  0.40279197    -1.11200
O742        O  0.13968452  0.91889521  0.37425766    -0.67800
Ni743      Ni  0.09661549  0.90225041  0.36632321     1.26300
O744        O  0.04955010  0.93347227  0.39099778    -0.68100
O745        O  0.08889166  0.86124466  0.37425570    -0.80400
C746        C  0.09335390  0.90191498  0.30843510     0.83100
O747        O  0.10751471  0.89818938  0.32843748    -0.67500
Ni748      Ni  0.10165620  0.90036235  0.43463955     1.27400
Ni749      Ni  0.09297710  0.94956617  0.39699651     1.26100
H750        H  0.12555576  0.95706147  0.35764940     0.37600
O751        O  0.15727284  0.58569884  0.68744962    -0.82300
O752        O  0.12725411  0.54170548  0.56427151    -0.67000
O753        O  0.15575855  0.55345389  0.63942330    -1.13600
C754        C  0.23342242  0.65107102  0.60352204     1.04600
O755        O  0.17465448  0.55798362  0.54876762    -0.80200
O756        O  0.22610074  0.58650181  0.57923744    -0.67800
Ni757      Ni  0.12893127  0.54701468  0.67019468     1.34900
C758        C  0.23105138  0.57883310  0.60296807     0.83300
O759        O  0.10672066  0.50611358  0.60956810    -0.80800
O760        O  0.09805301  0.50771807  0.65561297    -0.91000
C761        C  0.14560289  0.54142348  0.54589769     0.82900
O762        O  0.10860323  0.56682138  0.65497443    -0.69200
O763        O  0.22363039  0.63936191  0.57941214    -0.88500
C764        C  0.10180794  0.57028949  0.63037721     0.83700
C765        C  0.09203482  0.99507805  0.63012241     1.05300
H766        H  0.16354344  0.60204906  0.59626931     0.37100
O767        O  0.17236442  0.58879489  0.59736295    -1.11200
O768        O  0.21651777  0.57856950  0.62504641    -0.67800
Ni769      Ni  0.18949962  0.59454628  0.63377545     1.26300
O770        O  0.11147091  0.56261142  0.60877079    -0.68100
O771        O  0.22282686  0.63600806  0.62637524    -0.80400
C772        C  0.18564020  0.59558759  0.69177399     0.83100
O773        O  0.20353839  0.59813908  0.67164329    -0.67500
Ni774      Ni  0.19812943  0.59834392  0.56540500     1.27400
Ni775      Ni  0.13967155  0.54729084  0.60251650     1.26100
H776        H  0.16379816  0.53967449  0.64192202     0.37600
O777        O  0.08891356  0.66090795  0.31095919    -0.82300
O778        O  0.04582188  0.62550001  0.43414094    -0.67000
O779        O  0.05736582  0.65674779  0.35992375    -1.13600
C780        C  0.15513891  0.73237199  0.39658841     1.04600
O781        O  0.06120038  0.67255876  0.44996515    -0.80200
O782        O  0.09225281  0.72602953  0.42168480    -0.67800
Ni783      Ni  0.05063174  0.63125644  0.32820415     1.34900
C784        C  0.08405831  0.73152095  0.39846600     0.83300
O785        O  0.01005905  0.60622711  0.38919376    -0.80800
O786        O  0.01167698  0.59926691  0.34290242    -0.91000
C787        C  0.04428817  0.64339636  0.45217333     0.82900
O788        O  0.07103650  0.61081646  0.34168921    -0.69200
O789        O  0.14361926  0.72108242  0.42057438    -0.88500
C790        C  0.07448321  0.60281734  0.36581373     0.83700
C791        C  0.49850690  0.59154049  0.36647183     1.05300
H792        H  0.10597426  0.66268891  0.40191043     0.37100
O793        O  0.09272028  0.67154939  0.40154552    -1.11200
O794        O  0.08238807  0.71672719  0.37625763    -0.67800
Ni795      Ni  0.09855087  0.69030857  0.36594237     1.26300
O796        O  0.06671971  0.61131024  0.38813713    -0.68100
O797        O  0.13987989  0.72328148  0.37382572    -0.80400
C798        C  0.09751803  0.68920253  0.30784287     0.83100
O799        O  0.10213451  0.70640218  0.32892387    -0.67500
Ni800      Ni  0.10217256  0.69597238  0.43418384     1.27400
Ni801      Ni  0.05127460  0.63908081  0.39622927     1.26100
H802        H  0.04362311  0.66493120  0.35827119     0.37600
O803        O  0.41278870  0.57391751  0.68462234    -0.82300
O804        O  0.45413256  0.58244467  0.56040430    -0.67000
O805        O  0.44427254  0.60233858  0.63548648    -1.13600
C806        C  0.34620809  0.58102075  0.60210030     1.04600
O807        O  0.43814233  0.61346164  0.54488178    -0.80200
O808        O  0.41051563  0.63811692  0.57579956    -0.67800
Ni809      Ni  0.45060831  0.58260555  0.66628126     1.34900
C810        C  0.41860352  0.65135514  0.59939419     0.83300
O811        O  0.49088833  0.59919661  0.60464387    -0.80800
O812        O  0.48899284  0.58948473  0.65062587    -0.91000
C813        C  0.45460261  0.60077082  0.54202177     0.82900
O814        O  0.42954066  0.54189439  0.65185759    -0.69200
O815        O  0.35739711  0.58260432  0.57759779    -0.88500
C816        C  0.42640237  0.53093642  0.62741322     0.83700
C817        C  0.00227958  0.59531980  0.62702971     1.05300
H818        H  0.39475803  0.55997953  0.59361740     0.37100
O819        O  0.40812247  0.58209252  0.59431066    -1.11200
O820        O  0.41921036  0.63758215  0.62133591    -0.67800
Ni821      Ni  0.40326151  0.59492457  0.63069029     1.26300
O822        O  0.43437959  0.54763637  0.60558588    -0.68100
O823        O  0.36184593  0.58643916  0.62443060    -0.80400
C824        C  0.40401077  0.59336372  0.68862680     0.83100
O825        O  0.40061608  0.60729379  0.66821561    -0.67500
Ni826      Ni  0.39814678  0.59753774  0.56253357     1.27400
Ni827      Ni  0.44960708  0.59091404  0.59856742     1.26100
H828        H  0.45822807  0.62424218  0.63759285     0.37600
O829        O  0.07504513  0.65893906  0.18851547    -0.82300
O830        O  0.08511219  0.62637872  0.06421837    -0.67000
O831        O  0.10358157  0.65569965  0.13924675    -1.13600
C832        C  0.08266212  0.73255384  0.10455505     1.04600
O833        O  0.11676309  0.67355738  0.04869779    -0.80200
O834        O  0.13985656  0.72623033  0.07881483    -0.67800
Ni835      Ni  0.08307226  0.62933636  0.17008746     1.34900
C836        C  0.15320059  0.73106221  0.10218783     0.83300
O837        O  0.10089619  0.60629134  0.10886618    -0.80800
O838        O  0.08936126  0.59722263  0.15461280    -0.91000
C839        C  0.10442890  0.64436463  0.04618903     0.82900
O840        O  0.04259326  0.61078463  0.15560294    -0.69200
O841        O  0.08377954  0.72242024  0.08017935    -0.88500
C842        C  0.03199797  0.60312246  0.13115642     0.83700
C843        C  0.09641261  0.59040366  0.13090654     1.05300
H844        H  0.06205132  0.66319235  0.09716137     0.37100
O845        O  0.08414733  0.67189157  0.09772997    -1.11200
O846        O  0.13957296  0.71602781  0.12415668    -0.67800
Ni847      Ni  0.09673766  0.68963159  0.13386598     1.26300
O848        O  0.04918721  0.61116411  0.10941154    -0.68100
O849        O  0.08875013  0.72292473  0.12696522    -0.80400
C850        C  0.09403501  0.68744911  0.19191838     0.83100
O851        O  0.10863699  0.70456050  0.17130579    -0.67500
Ni852      Ni  0.09974546  0.69717667  0.06563076     1.27400
Ni853      Ni  0.09271136  0.63915199  0.10240879     1.26100
H854        H  0.12539478  0.66346924  0.14148030     0.37600
O855        O  0.16310514  0.57210273  0.81360860    -0.82300
O856        O  0.13121936  0.58095686  0.93728639    -0.67000
O857        O  0.16045114  0.60035801  0.86199571    -1.13600
C858        C  0.23739801  0.57873717  0.89489429     1.04600
O859        O  0.17856294  0.61179164  0.95236308    -0.80200
O860        O  0.23092718  0.63544979  0.92127448    -0.67800
Ni861      Ni  0.13414538  0.58133981  0.83116025     1.34900
C862        C  0.23594918  0.64877282  0.89775049     0.83300
O863        O  0.11099686  0.59755525  0.89292830    -0.80800
O864        O  0.10330223  0.58940118  0.84667007    -0.91000
C865        C  0.14944014  0.59956950  0.95542701     0.82900
O866        O  0.11335570  0.54040987  0.84532989    -0.69200
O867        O  0.22735353  0.57958539  0.91941864    -0.88500
C868        C  0.10631914  0.52914621  0.86973392     0.83700
C869        C  0.09611297  0.59526857  0.87073281     1.05300
H870        H  0.16760801  0.55782552  0.90346104     0.37100
O871        O  0.17648966  0.57995473  0.90287180    -1.11200
O872        O  0.22089905  0.63533586  0.87596685    -0.67800
Ni873      Ni  0.19415260  0.59278340  0.86644008     1.26300
O874        O  0.11566574  0.54563885  0.89172771    -0.68100
O875        O  0.22728406  0.58447060  0.87263227    -0.80400
C876        C  0.19073475  0.59265632  0.80861550     0.83100
O877        O  0.20908756  0.60537340  0.82873889    -0.67500
Ni878      Ni  0.20204612  0.59512720  0.93461993     1.27400
Ni879      Ni  0.14386691  0.58899078  0.89888888     1.26100
H880        H  0.16857841  0.62230782  0.86010319     0.37600
O881        O  0.08242271  0.92399726  0.18805384    -0.82300
O882        O  0.04168034  0.91263893  0.06355995    -0.67000
O883        O  0.05144389  0.89489227  0.13910202    -1.13600
C884        C  0.14898243  0.91326112  0.10355428     1.04600
O885        O  0.05665812  0.88009618  0.04929315    -0.80200
O886        O  0.08491830  0.85663331  0.07969186    -0.67800
Ni887      Ni  0.04495621  0.91544857  0.16973803     1.34900
C888        C  0.07701562  0.84409537  0.10359093     0.83300
O889        O  0.00532525  0.89795443  0.10870896    -0.80800
O890        O  0.00661130  0.90864309  0.15453226    -0.91000
C891        C  0.04106953  0.89349933  0.04565184     0.82900
O892        O  0.06680572  0.95581710  0.15453274    -0.69200
O893        O  0.13779427  0.91177209  0.07935462    -0.88500
C894        C  0.07078263  0.96637286  0.12991132     0.83700
C895        C  0.49317700  0.90143906  0.13110709     1.05300
H896        H  0.10119873  0.93537986  0.09583033     0.37100
O897        O  0.08752617  0.91333195  0.09710467    -1.11200
O898        O  0.07591108  0.85833953  0.12528674    -0.67800
Ni899      Ni  0.09230459  0.90149078  0.13357579     1.26300
O900        O  0.06247478  0.94916984  0.10830815    -0.68100
O901        O  0.13358878  0.90893788  0.12633161    -0.80400
C902        C  0.09205921  0.90520117  0.19172230     0.83100
O903        O  0.09495357  0.89047437  0.17134398    -0.67500
Ni904      Ni  0.09693139  0.89660448  0.06548794     1.27400
Ni905      Ni  0.04630751  0.90543685  0.10202201     1.26100
H906        H  0.03730090  0.87309539  0.14163516     0.37600
O907        O  0.41871015  0.83556262  0.80751372    -0.82300
O908        O  0.45896181  0.86966228  0.93249699    -0.67000
O909        O  0.44891956  0.83973467  0.85735914    -1.13600
C910        C  0.35137384  0.76243481  0.89406213     1.04600
O911        O  0.44389639  0.82252231  0.94730999    -0.80200
O912        O  0.41470484  0.76977298  0.91801047    -0.67800
Ni913      Ni  0.45501411  0.86594562  0.82653109     1.34900
C914        C  0.42362339  0.76497433  0.89453722     0.83300
O915        O  0.49531927  0.88924441  0.88735476    -0.80800
O916        O  0.49234335  0.89894295  0.84214742    -0.91000
C917        C  0.45960671  0.85162038  0.95061395     0.82900
O918        O  0.43150741  0.88317193  0.84117963    -0.69200
O919        O  0.36251122  0.77329251  0.91806820    -0.88500
C920        C  0.42955913  0.89213526  0.86558358     0.83700
C921        C  0.00642148  0.90574362  0.86543309     1.05300
H922        H  0.39944205  0.83236091  0.90024757     0.37100
O923        O  0.41291685  0.82375663  0.89940414    -1.11200
O924        O  0.42510070  0.77980794  0.87261776    -0.67800
Ni925      Ni  0.40812017  0.80560801  0.86340592     1.26300
O926        O  0.43899092  0.88465771  0.88715300    -0.68100
O927        O  0.36695154  0.77192233  0.87121789    -0.80400
C928        C  0.40888676  0.80686981  0.80505541     0.83100
O929        O  0.40532666  0.79017445  0.82613294    -0.67500
Ni930      Ni  0.40346079  0.79875814  0.93154028     1.27400
Ni931      Ni  0.45421195  0.85653076  0.89422222     1.26100
H932        H  0.46309907  0.83212991  0.85488356     0.37600
O933        O  0.33623865  0.91615325  0.19351548    -0.82300
O934        O  0.37233133  0.95705919  0.06752526    -0.67000
O935        O  0.34090517  0.94498015  0.14241412    -1.13600
C936        C  0.26734984  0.84628499  0.10479343     1.04600
O937        O  0.32514271  0.94033501  0.05232749    -0.80200
O938        O  0.27151206  0.90721130  0.08067721    -0.67800
Ni939      Ni  0.36749105  0.95053246  0.17263623     1.34900
C940        C  0.26557421  0.91590968  0.10374102     0.83300
O941        O  0.39002400  0.99308752  0.11264006    -0.80800
O942        O  0.40187655  0.98659890  0.15598706    -0.91000
C943        C  0.35422779  0.95716163  0.04933258     0.82900
O944        O  0.38114796  0.92406367  0.15765977    -0.69200
O945        O  0.27928010  0.85762472  0.08093610    -0.88500
C946        C  0.39249690  0.92486038  0.13363093     0.83700
C947        C  0.40637067  0.50480956  0.12949941     1.05300
H948        H  0.33650800  0.89688561  0.09978166     0.37100
O949        O  0.32707301  0.90963126  0.10024421    -1.11200
O950        O  0.28084563  0.91922917  0.12579903    -0.67800
Ni951      Ni  0.30777179  0.90365401  0.13584371     1.26300
O952        O  0.38771098  0.93754625  0.11277288    -0.68100
O953        O  0.27533847  0.86198942  0.12754091    -0.80400
C954        C  0.30708766  0.90395725  0.19453958     0.83100
O955        O  0.29108445  0.89958670  0.17286192    -0.67500
Ni956      Ni  0.30299677  0.89922293  0.06769877     1.27400
Ni957      Ni  0.35849786  0.95142867  0.10561131     1.26100
H958        H  0.33272923  0.95866344  0.14526140     0.37600
O959        O  0.42822659  0.58290878  0.80612043    -0.82300
O960        O  0.41740031  0.53987256  0.93162279    -0.67000
O961        O  0.40104851  0.55202957  0.85629948    -1.13600
C962        C  0.42198557  0.64974271  0.89289023     1.04600
O963        O  0.38657872  0.55659392  0.94692541    -0.80200
O964        O  0.36452509  0.58649560  0.91735306    -0.67800
Ni965      Ni  0.42330044  0.54724765  0.82598240     1.34900
C966        C  0.35133250  0.57779447  0.89392335     0.83300
O967        O  0.40183336  0.50457830  0.88604791    -0.80800
O968        O  0.41974409  0.51028956  0.84197017    -0.91000
C969        C  0.39877379  0.53980614  0.94990668     0.82900
O970        O  0.46308280  0.57234521  0.84166560    -0.69200
O971        O  0.42086926  0.63839043  0.91698819    -0.88500
C972        C  0.47255420  0.57230085  0.86611911     0.83700
C973        C  0.40711872  0.99368848  0.86835574     1.05300
H974        H  0.44225721  0.60047545  0.89942910     0.37100
O975        O  0.42013432  0.58732745  0.89862768    -1.11200
O976        O  0.36505487  0.57622887  0.87199340    -0.67800
Ni977      Ni  0.40798531  0.59281679  0.86260227     1.26300
O978        O  0.45424619  0.56039873  0.88691384    -0.68100
O979        O  0.41602441  0.63413710  0.87021772    -0.80400
C980        C  0.40907506  0.59239527  0.80417387     0.83100
O981        O  0.39603276  0.59596349  0.82556928    -0.67500
Ni982      Ni  0.40433442  0.59717025  0.93075313     1.27400
Ni983      Ni  0.41076990  0.54574648  0.89330029     1.26100
H984        H  0.37935712  0.53798939  0.85325500     0.37600
C985        C  0.34921423  0.99220801  0.01639328    -0.14800
C986        C  0.36625048  0.97876795  0.02552718     0.07400
C987        C  0.39368034  0.98557248  0.01130316    -0.14800
C988        C  0.40694480  0.50731654  0.98548666    -0.14800
C989        C  0.38858034  0.51838859  0.97405494     0.07400
C990        C  0.35953519  0.50906505  0.98614475    -0.14800
H991        H  0.32813298  0.98755104  0.02712688     0.11400
H992        H  0.40713056  0.97534604  0.01798763     0.11400
H993        H  0.42947111  0.51420321  0.97660536     0.11400
H994        H  0.34471938  0.51698881  0.97780249     0.11400
C995        C  0.40688518  0.92174016  0.84445419    -0.14800
C996        C  0.41748942  0.91377277  0.86829799     0.07400
C997        C  0.41987428  0.92947733  0.89347712    -0.14800
C998        C  0.41412606  0.95418319  0.89415257    -0.14800
C999        C  0.40621029  0.96372420  0.86961110     0.07400
C1000       C  0.40154120  0.94652509  0.84506665    -0.14800
H1001       H  0.40433174  0.90993078  0.82477430     0.11400
H1002       H  0.42787051  0.92387098  0.91223598     0.11400
H1003       H  0.41795252  0.96711981  0.91335983     0.11400
H1004       H  0.39509225  0.95313959  0.82593114     0.11400
C1005       C  0.42804860  0.72423513  0.86721868    -0.20800
C1006       C  0.43051917  0.73948236  0.89269118     0.07400
C1007       C  0.43504347  0.72723799  0.91726599    -0.14800
C1008       C  0.43440944  0.69909615  0.91684817    -0.14800
C1009       C  0.42901663  0.68228484  0.89185577     0.07400
C1010       C  0.42718346  0.69578365  0.86681173    -0.14800
H1011       H  0.42461875  0.73316695  0.84789957     0.11400
H1012       H  0.43744242  0.73861637  0.93716960     0.11400
H1013       H  0.43644442  0.68975188  0.93650684     0.11400
H1014       H  0.42334875  0.68361931  0.84715360     0.11400
C1015       C  0.01206860  0.85600764  0.00797977    -0.14800
C1016       C  0.02035859  0.88420981  0.02120205     0.07400
C1017       C  0.00865315  0.90250292  0.01078024    -0.14800
C1018       C  0.48980802  0.89261834  0.98693790    -0.14800
C1019       C  0.48060401  0.86363208  0.97477400     0.07400
C1020       C  0.49133518  0.84505824  0.98618474    -0.14800
H1021       H  0.02047155  0.84122828  0.01545986     0.11400
H1022       H  0.01467766  0.92436348  0.02054764     0.11400
H1023       H  0.48175125  0.90733387  0.97858299     0.11400
H1024       H  0.48484645  0.82269728  0.97724430     0.11400
C1025       C  0.45545549  0.91076655  0.10524410    -0.14800
C1026       C  0.46317738  0.90035609  0.12935270     0.07400
C1027       C  0.44431482  0.89345990  0.15323421    -0.14800
C1028       C  0.41975070  0.89916722  0.15378910    -0.14800
C1029       C  0.41374950  0.91237729  0.13059818     0.07400
C1030       C  0.43102677  0.91687019  0.10589372    -0.14800
H1031       H  0.46967580  0.91636265  0.08655366     0.11400
H1032       H  0.94976709  0.88555958  0.17179213     0.11400
H1033       H  0.40664331  0.89492962  0.17304051     0.11400
H1034       H  0.42690305  0.92682444  0.08760574     0.11400
C1035       C  0.19721086  0.92165892  0.07950499    -0.14800
C1036       C  0.18107950  0.91886417  0.10459909     0.07400
C1037       C  0.19492041  0.91869040  0.12994954    -0.14800
C1038       C  0.22347029  0.91968548  0.12999025    -0.14800
C1039       C  0.23858059  0.92067813  0.10467823     0.07400
C1040       C  0.22542123  0.92247051  0.07954931    -0.14800
H1041       H  0.18749781  0.92198395  0.05953383     0.11400
H1042       H  0.18316608  0.91656077  0.14966239     0.11400
H1043       H  0.23290187  0.91808791  0.14971007     0.11400
H1044       H  0.23641175  0.92338111  0.05966113     0.11400
C1045       C  0.27786806  0.69190254  0.86986093    -0.14800
C1046       C  0.26196966  0.68077437  0.89541401     0.07400
C1047       C  0.27380503  0.69882611  0.91950798    -0.14800
C1048       C  0.30190560  0.72639069  0.91851356    -0.14800
C1049       C  0.31910493  0.73645484  0.89344907     0.07400
C1050       C  0.30628349  0.71945998  0.86889787    -0.14800
H1051       H  0.26935372  0.67834172  0.85095753     0.11400
H1052       H  0.26198174  0.69096482  0.93944233     0.11400
H1053       H  0.31082572  0.73902316  0.93780981     0.11400
H1054       H  0.31887566  0.72656633  0.84925978     0.11400
C1055       C  0.07505959  0.98073758  0.84269429    -0.14800
C1056       C  0.08528626  0.49534280  0.87205892     0.07400
C1057       C  0.06908282  0.98249857  0.89282409    -0.14800
C1058       C  0.04549560  0.95153716  0.89249784    -0.14800
C1059       C  0.03570914  0.93542658  0.86706578     0.07400
C1060       C  0.05156465  0.95001409  0.84236661    -0.14800
H1061       H  0.09391260  0.48580158  0.82963137     0.11400
H1062       H  0.07502804  0.99490738  0.91246753     0.11400
H1063       H  0.03361610  0.94089080  0.91186817     0.11400
H1064       H  0.54545899  0.93773603  0.82288747     0.11400
C1065       C  0.28049870  0.57791597  0.86781078    -0.14800
C1066       C  0.26323640  0.57226183  0.89271699     0.07400
C1067       C  0.27302902  0.56361155  0.91666427    -0.14800
C1068       C  0.30065997  0.56318780  0.91641008    -0.14800
C1069       C  0.31910728  0.57115916  0.89216476     0.07400
C1070       C  0.30816074  0.57725695  0.86751948    -0.14800
H1071       H  0.27360690  0.58458405  0.84897635     0.11400
H1072       H  0.26014404  0.55866367  0.93611794     0.11400
H1073       H  0.30835625  0.55807436  0.93563068     0.11400
H1074       H  0.32199705  0.58362751  0.84854535     0.11400
C1075       C  0.04848402  0.58685687  0.89636641    -0.14800
C1076       C  0.06770684  0.59737236  0.87255031     0.07400
C1077       C  0.05697873  0.60478251  0.84853932    -0.14800
C1078       C  0.02675323  0.59902691  0.84737362    -0.14800
C1079       C  0.50616696  0.58494824  0.86991145     0.07400
C1080       C  0.01800185  0.58085826  0.89514703    -0.14800
H1081       H  0.05615085  0.58093359  0.91516286     0.11400
H1082       H  0.07141648  0.61331044  0.82998465     0.11400
H1083       H  0.01883326  0.60344034  0.82794670     0.11400
H1084       H  0.50271483  0.56987545  0.91283403     0.11400
C1085       C  0.48469425  0.56589811  0.10319624    -0.14800
C1086       C  0.99817059  0.58278532  0.12855735     0.07400
C1087       C  0.47879067  0.57583360  0.15180685    -0.14800
C1088       C  0.44809528  0.55232029  0.15147404    -0.14800
C1089       C  0.43561408  0.53446054  0.12738016     0.07400
C1090       C  0.45371253  0.54235042  0.10282284    -0.14800
H1091       H  0.99903026  0.57047997  0.08518209     0.11400
H1092       H  0.48799322  0.58813298  0.17120464     0.11400
H1093       H  0.43459085  0.54696184  0.17060365     0.11400
H1094       H  0.44272560  0.03208646  0.08712481     0.11400
C1095       C  0.19761945  0.77173095  0.12955586    -0.14800
C1096       C  0.18550483  0.75678741  0.10397290     0.07400
C1097       C  0.20297369  0.76935305  0.07945591    -0.14800
C1098       C  0.23072169  0.79735708  0.08015582    -0.14800
C1099       C  0.24161429  0.81375200  0.10536834     0.07400
C1100       C  0.22535276  0.80003128  0.13023752    -0.14800
H1101       H  0.18468464  0.76262333  0.14882152     0.11400
H1102       H  0.19446239  0.75827461  0.05944667     0.11400
H1103       H  0.24270812  0.80694933  0.06057676     0.11400
H1104       H  0.23314891  0.81189660  0.15002807     0.11400
C1105       C  0.06318772  0.79313187  0.08245441    -0.14800
C1106       C  0.07120746  0.81215303  0.10617281     0.07400
C1107       C  0.07881325  0.80241744  0.13078035    -0.14800
C1108       C  0.08083964  0.77546339  0.13088954    -0.14800
C1109       C  0.07515581  0.75773290  0.10641418     0.07400
C1110       C  0.06502728  0.76622244  0.08259552    -0.14800
H1111       H  0.05702682  0.79991898  0.06325632     0.11400
H1112       H  0.08536359  0.81675511  0.14932273     0.11400
H1113       H  0.08858288  0.76954125  0.14963177     0.11400
H1114       H  0.05995139  0.75288386  0.06351022     0.11400
C1115       C  0.08874491  0.54380593  0.10428650    -0.14800
C1116       C  0.09735898  0.56140283  0.12898955     0.07400
C1117       C  0.10237889  0.54887814  0.15310509    -0.14800
C1118       C  0.09654823  0.51857830  0.15320445    -0.14800
C1119       C  0.08446247  0.00021798  0.12699339     0.07400
C1120       C  0.08252284  0.51320499  0.10445561    -0.14800
H1121       H  0.08464188  0.55289951  0.08539204     0.11400
H1122       H  0.10934445  0.56202040  0.17235344     0.11400
H1123       H  0.09929918  0.50928979  0.17260806     0.11400
H1124       H  0.07122558  0.99934300  0.08394827     0.11400
C1125       C  0.10657508  0.59223603  0.98874794    -0.14800
C1126       C  0.13734765  0.60970311  0.97929015     0.07400
C1127       C  0.15686334  0.63807509  0.99234935    -0.14800
C1128       C  0.14584499  0.64914523  0.01377330    -0.14800
C1129       C  0.11519658  0.63185326  0.02327777     0.07400
C1130       C  0.09571585  0.60301650  0.01088635    -0.14800
H1131       H  0.09101237  0.57027031  0.97912097     0.11400
H1132       H  0.18064178  0.65218573  0.98557651     0.11400
H1133       H  0.16149996  0.67125530  0.02314210     0.11400
H1134       H  0.07199933  0.58918540  0.01791325     0.11400
C1135       C  0.37480987  0.57556679  0.73315953    -0.14800
C1136       C  0.39870617  0.59936196  0.71761048     0.07400
C1137       C  0.42286264  0.62427073  0.73165321    -0.14800
C1138       C  0.42478416  0.62376309  0.76076303    -0.14800
C1139       C  0.40215714  0.59870426  0.77610820     0.07400
C1140       C  0.37636521  0.57541515  0.76230193    -0.14800
H1141       H  0.35647907  0.55573523  0.72264872     0.11400
H1142       H  0.44196431  0.64234902  0.71995577     0.11400
H1143       H  0.44516375  0.64155389  0.77102856     0.11400
H1144       H  0.35906710  0.55553458  0.77376582     0.11400
C1145       C  0.50626718  0.64774177  0.48223286    -0.14800
C1146       C  0.02061146  0.63110300  0.47454146     0.07400
C1147       C  0.01184621  0.60301055  0.48800170    -0.14800
C1148       C  0.99024988  0.59292567  0.51009454    -0.14800
C1149       C  0.47647527  0.60999774  0.51809458     0.07400
C1150       C  0.48421041  0.63724344  0.50356384    -0.14800
H1151       H  0.51200266  0.66909328  0.47173710     0.11400
H1152       H  0.02225838  0.58936563  0.48194065     0.11400
H1153       H  0.98430891  0.57158252  0.52067999     0.11400
H1154       H  0.47377317  0.65100134  0.50913694     0.11400
C1155       C  0.12724063  0.71023816  0.26340819    -0.14800
C1156       C  0.10012036  0.70053457  0.27920892     0.07400
C1157       C  0.07269267  0.69312797  0.26557623    -0.14800
C1158       C  0.07159894  0.69249355  0.23647782    -0.14800
C1159       C  0.09802761  0.69962154  0.22054264     0.07400
C1160       C  0.12626444  0.71012751  0.23410905    -0.14800
H1161       H  0.14841802  0.71519612  0.27358087     0.11400
H1162       H  0.05140678  0.68484072  0.27741684     0.11400
H1163       H  0.04950492  0.68375572  0.22643788     0.11400
H1164       H  0.14673271  0.71495778  0.22218884     0.11400
C1165       C  0.18331676  0.61748775  0.73762461    -0.14800
C1166       C  0.19658248  0.60406165  0.72076512     0.07400
C1167       C  0.21403996  0.59265017  0.73344714    -0.14800
C1168       C  0.21525763  0.59170498  0.76276949    -0.14800
C1169       C  0.19941559  0.60259660  0.77944196     0.07400
C1170       C  0.18474673  0.61677332  0.76662740    -0.14800
H1171       H  0.16963918  0.62630395  0.72839305     0.11400
H1172       H  0.22406427  0.58174930  0.72088888     0.11400
H1173       H  0.22618553  0.58012789  0.77229919     0.11400
H1174       H  0.17205217  0.62492595  0.77912344     0.11400
C1175       C  0.27301249  0.57724074  0.62961063    -0.14800
C1176       C  0.25646480  0.57199241  0.60475349     0.07400
C1177       C  0.26745869  0.56494354  0.58029138    -0.14800
C1178       C  0.29568934  0.56582716  0.58001957    -0.14800
C1179       C  0.31373688  0.57391336  0.60419088     0.07400
C1180       C  0.30149207  0.57825734  0.62932433    -0.14800
H1181       H  0.26508541  0.58275860  0.64878714     0.11400
H1182       H  0.25502254  0.56039705  0.56089096     0.11400
H1183       H  0.30408524  0.56176270  0.56040118     0.11400
H1184       H  0.31469960  0.58428123  0.64836682     0.11400
C1185       C  0.07191744  0.59299223  0.65142514    -0.14800
C1186       C  0.08058684  0.58267757  0.62745748     0.07400
C1187       C  0.06654195  0.58170834  0.60190396    -0.14800
C1188       C  0.04249366  0.58843523  0.60099241    -0.14800
C1189       C  0.03219450  0.59610491  0.62563981     0.07400
C1190       C  0.04809116  0.59957455  0.65052433    -0.14800
H1191       H  0.08251775  0.59456649  0.67138803     0.11400
H1192       H  0.07288855  0.57409307  0.58301502     0.11400
H1193       H  0.53077764  0.58556497  0.58134265     0.11400
H1194       H  0.04099822  0.60580295  0.66980672     0.11400
C1195       C  0.09509413  0.98887395  0.48889117    -0.14800
C1196       C  0.11510606  0.98084501  0.47521101     0.07400
C1197       C  0.14594251  0.99491760  0.48351769    -0.14800
C1198       C  0.15652053  0.01589459  0.50550207    -0.14800
C1199       C  0.13381381  0.51999926  0.52174125     0.07400
C1200       C  0.10307167  0.50660917  0.51282243    -0.14800
H1201       H  0.07122693  0.97841533  0.48267651     0.11400
H1202       H  0.16198899  0.98954968  0.47302477     0.11400
H1203       H  0.18043056  0.02587950  0.51144091     0.11400
H1204       H  0.08713829  0.51206249  0.52338192     0.11400
C1205       C  0.09487672  0.54437322  0.39315905    -0.14800
C1206       C  0.09821623  0.53169619  0.36792636     0.07400
C1207       C  0.09851892  0.54588554  0.34267362    -0.14800
C1208       C  0.09286261  0.57035533  0.34236082    -0.14800
C1209       C  0.08659054  0.58127752  0.36730253     0.07400
C1210       C  0.08900743  0.56898457  0.39284562    -0.14800
H1211       H  0.08681115  0.02866176  0.41265484     0.11400
H1212       H  0.10149242  0.53701363  0.32288159     0.11400
H1213       H  0.09172570  0.57952947  0.32228397     0.11400
H1214       H  0.08470825  0.57719696  0.41243573     0.11400
C1215       C  0.07398435  0.79818774  0.42163126    -0.14800
C1216       C  0.07916655  0.81466323  0.39656608     0.07400
C1217       C  0.08164655  0.80119016  0.37148928    -0.14800
C1218       C  0.08105087  0.77290127  0.37178436    -0.14800
C1219       C  0.07812976  0.75765409  0.39717040     0.07400
C1220       C  0.07356777  0.77011663  0.42193268    -0.14800
H1221       H  0.07161560  0.80761591  0.44132861     0.11400
H1222       H  0.08558711  0.81319168  0.35181068     0.11400
H1223       H  0.08473424  0.76393383  0.35235418     0.11400
H1224       H  0.07098343  0.75881176  0.44179811     0.11400
C1225       C  0.08171635  0.87235655  0.26376029    -0.14800
C1226       C  0.10055135  0.89924149  0.27907089     0.07400
C1227       C  0.12065159  0.92651989  0.26477356    -0.14800
C1228       C  0.12013531  0.92766383  0.23566631    -0.14800
C1229       C  0.09988565  0.90137675  0.22036120     0.07400
C1230       C  0.08168451  0.87333234  0.23446687    -0.14800
H1231       H  0.06533277  0.85136132  0.27445924     0.11400
H1232       H  0.13466571  0.94768694  0.27625703     0.11400
H1233       H  0.13383827  0.94964368  0.22523015     0.11400
H1234       H  0.06528449  0.85302273  0.22306818     0.11400
C1235       C  0.37421505  0.79096478  0.73439696    -0.14800
C1236       C  0.39967584  0.79543054  0.71819656     0.07400
C1237       C  0.42479238  0.79596534  0.73130052    -0.14800
C1238       C  0.42569058  0.79496683  0.76044046    -0.14800
C1239       C  0.40171289  0.79393186  0.77675316     0.07400
C1240       C  0.37533137  0.79046780  0.76357649    -0.14800
H1241       H  0.35502345  0.79137920  0.72468255     0.11400
H1242       H  0.44496643  0.80022330  0.71917893     0.11400
H1243       H  0.44660289  0.79854997  0.77023866     0.11400
H1244       H  0.35702598  0.79054983  0.77581648     0.11400
C1245       C  0.27553670  0.69687585  0.62907410    -0.14800
C1246       C  0.25957767  0.68338390  0.60426186     0.07400
C1247       C  0.27096191  0.69987063  0.57910884    -0.14800
C1248       C  0.29870441  0.72783403  0.57835257    -0.14800
C1249       C  0.31579186  0.74031909  0.60274738     0.07400
C1250       C  0.30336316  0.72516094  0.62833052    -0.14800
H1251       H  0.26740562  0.68487964  0.64880984     0.11400
H1252       H  0.25921479  0.69047928  0.55958559     0.11400
H1253       H  0.30744673  0.73902299  0.55835640     0.11400
H1254       H  0.31603588  0.73417283  0.64751203     0.11400
C1255       C  0.04565755  0.95642863  0.60338921    -0.14800
C1256       C  0.06287374  0.96514780  0.62813660     0.07400
C1257       C  0.04966310  0.94751397  0.65234738    -0.14800
C1258       C  0.01920992  0.92334181  0.65248615    -0.14800
C1259       C  0.50112170  0.91619213  0.62844203     0.07400
C1260       C  0.01493895  0.93220141  0.60355901    -0.14800
H1261       H  0.05517516  0.96965084  0.58440278     0.11400
H1262       H  0.06236911  0.95341878  0.67168276     0.11400
H1263       H  0.50928031  0.91209815  0.67222432     0.11400
H1264       H  0.00162697  0.92721380  0.58465711     0.11400
C1265       C  0.43255452  0.72961573  0.57791937    -0.14800
C1266       C  0.42513134  0.73993385  0.60266791     0.07400
C1267       C  0.42055556  0.72312261  0.62740714    -0.14800
C1268       C  0.42088725  0.69529944  0.62684776    -0.14800
C1269       C  0.42558432  0.68373293  0.60151813     0.07400
C1270       C  0.43263366  0.70179808  0.57733130    -0.14800
H1271       H  0.43667863  0.74217162  0.55853809     0.11400
H1272       H  0.41491826  0.73046559  0.64684618     0.11400
H1273       H  0.41534316  0.68183893  0.64583947     0.11400
H1274       H  0.43671193  0.69367583  0.55758131     0.11400
C1275       C  0.39963131  0.95002024  0.65223588    -0.14800
C1276       C  0.40347772  0.93678126  0.62768783     0.07400
C1277       C  0.41219841  0.95418526  0.60289414    -0.14800
C1278       C  0.41940517  0.98513204  0.60329274    -0.14800
C1279       C  0.41441907  0.49735354  0.62492977     0.07400
C1280       C  0.40662275  0.98066948  0.65261384    -0.14800
H1281       H  0.39266247  0.93709833  0.67159333     0.11400
H1282       H  0.41549351  0.94458398  0.58367739     0.11400
H1283       H  0.42778475  0.99858183  0.58429566     0.11400
H1284       H  0.39732058  0.48761917  0.66770658     0.11400
C1285       C  0.29274280  0.91724168  0.26772069    -0.14800
C1286       C  0.29623396  0.89428633  0.28088064     0.07400
C1287       C  0.29453250  0.86986650  0.26493423    -0.14800
C1288       C  0.29293165  0.87027571  0.23582224    -0.14800
C1289       C  0.29287394  0.89504158  0.22240021     0.07400
C1290       C  0.29086572  0.91750045  0.23858294    -0.14800
H1291       H  0.29478933  0.93665334  0.27963717     0.11400
H1292       H  0.29793510  0.85236063  0.27470321     0.11400
H1293       H  0.29542534  0.85326366  0.22371646     0.11400
H1294       H  0.29178949  0.93730228  0.22860245     0.11400
C1295       C  0.35072385  0.85766786  0.48555475    -0.14800
C1296       C  0.36722824  0.88884939  0.47778653     0.07400
C1297       C  0.39476435  0.90882944  0.49164529    -0.14800
C1298       C  0.40503278  0.89776279  0.51353723    -0.14800
C1299       C  0.38835071  0.86639845  0.52122531     0.07400
C1300       C  0.36129095  0.84652626  0.50672069    -0.14800
H1301       H  0.32962092  0.84169803  0.47499853     0.11400
H1302       H  0.40788094  0.93299390  0.48596675     0.11400
H1303       H  0.42594764  0.91362882  0.52436954     0.11400
H1304       H  0.34779026  0.82229272  0.51208438     0.11400
C1305       C  0.43229704  0.51544398  0.39332982    -0.14800
C1306       C  0.41680967  0.00076157  0.36799548     0.07400
C1307       C  0.42636473  0.01775251  0.34296583    -0.14800
C1308       C  0.45261518  0.54829620  0.34318511    -0.14800
C1309       C  0.46835613  0.56226279  0.36790977     0.07400
C1310       C  0.45717991  0.54591658  0.39318663    -0.14800
H1311       H  0.42532379  0.50288067  0.41286416     0.11400
H1312       H  0.41590427  0.00716129  0.32326996     0.11400
H1313       H  0.46037596  0.56018476  0.32336096     0.11400
H1314       H  0.46880367  0.55596387  0.41262507     0.11400
C1315       C  0.23123358  0.79801172  0.42166716    -0.14800
C1316       C  0.24310630  0.81589697  0.39740815     0.07400
C1317       C  0.22813688  0.80373962  0.37189010    -0.14800
C1318       C  0.20042561  0.77546236  0.37112788    -0.14800
C1319       C  0.18731792  0.75870366  0.39584334     0.07400
C1320       C  0.20380514  0.76970144  0.42087248    -0.14800
H1321       H  0.24242358  0.80653795  0.44156723     0.11400
H1322       H  0.23675473  0.81697018  0.35279460     0.11400
H1323       H  0.18846512  0.76762844  0.35147604     0.11400
H1324       H  0.19468576  0.75728440  0.44029244     0.11400
C1325       C  0.45098272  0.89893043  0.34957431    -0.14800
C1326       C  0.43856749  0.90377684  0.37422713     0.07400
C1327       C  0.45616230  0.91215953  0.39870525    -0.14800
C1328       C  0.48668935  0.91805443  0.39777301    -0.14800
C1329       C  0.99934430  0.91489788  0.37256869     0.07400
C1330       C  0.48109761  0.90461846  0.34866295    -0.14800
H1331       H  0.43781495  0.89210931  0.33048049     0.11400
H1332       H  0.44710027  0.91613561  0.41797554     0.11400
H1333       H  0.99984960  0.92496685  0.41678090     0.11400
H1334       H  0.49018302  0.90189284  0.32886348     0.11400
C1335       C  0.20521881  0.93657461  0.41772931    -0.14800
C1336       C  0.18687094  0.92787449  0.39376421     0.07400
C1337       C  0.19819158  0.92169567  0.36899149    -0.14800
C1338       C  0.22586530  0.92112788  0.36904346    -0.14800
C1339       C  0.24263176  0.92683147  0.39385498     0.07400
C1340       C  0.23279121  0.93609786  0.41777080    -0.14800
H1341       H  0.19733076  0.94194537  0.43701214     0.11400
H1342       H  0.18454917  0.91495821  0.35018574     0.11400
H1343       H  0.23296640  0.91417656  0.35019206     0.11400
H1344       H  0.24546289  0.94127285  0.43708102     0.11400
O1345       O  0.83992268  0.41950531  0.30936073    -0.82300
O1346       O  0.87183488  0.41619296  0.43619411    -0.67000
O1347       O  0.84255499  0.39511673  0.36124312    -1.13600
C1348       C  0.76586589  0.41725026  0.39591842     1.04600
O1349       O  0.82471193  0.38465680  0.45197046    -0.80200
O1350       O  0.77265006  0.35993541  0.42183701    -0.67800
Ni1351     Ni  0.86936104  0.41374908  0.33000281     1.34900
C1352       C  0.76759506  0.34683568  0.39815213     0.83300
O1353       O  0.89152163  0.39830533  0.39219427    -0.80800
O1354       O  0.90169025  0.40942635  0.34666211    -0.91000
C1355       C  0.85384341  0.39732673  0.45452303     0.82900
O1356       O  0.88683974  0.45495543  0.34319218    -0.69200
O1357       O  0.77506020  0.41540488  0.42024683    -0.88500
C1358       C  0.89570396  0.46669298  0.36724777     0.83700
C1359       C  0.90806415  0.40286108  0.37042757     1.05300
H1360       H  0.83543816  0.43843332  0.40329685     0.37100
O1361       O  0.82659458  0.41629084  0.40259182    -1.11200
O1362       O  0.78208487  0.36071818  0.37608454    -0.67800
Ni1363     Ni  0.80923297  0.40319829  0.36639943     1.26300
O1364       O  0.88767129  0.45052654  0.38955969    -0.68100
O1365       O  0.77649159  0.41212508  0.37329170    -0.80400
C1366       C  0.81100602  0.40171857  0.30754995     0.83100
O1367       O  0.79411987  0.39036832  0.32913298    -0.67500
Ni1368     Ni  0.80081276  0.40061867  0.43477837     1.27400
Ni1369     Ni  0.85907592  0.40727964  0.39803472     1.26100
H1370       H  0.83432959  0.37312117  0.35958011     0.37600
O1371       O  0.91513304  0.33931166  0.69298907    -0.82300
O1372       O  0.91635744  0.37180480  0.56382859    -0.67000
O1373       O  0.89547410  0.34145492  0.63889841    -1.13600
C1374       C  0.91927063  0.26599414  0.60317632     1.04600
O1375       O  0.88561979  0.32479751  0.54807172    -0.80200
O1376       O  0.86185307  0.27311877  0.57886043    -0.67800
Ni1377     Ni  0.91418507  0.36950027  0.66919294     1.34900
C1378       C  0.84922339  0.26696572  0.60288886     0.83300
O1379       O  0.89586439  0.38897439  0.60747415    -0.80800
O1380       O  0.91388708  0.40328478  0.65057712    -0.91000
C1381       C  0.89790045  0.35390252  0.54551306     0.82900
O1382       O  0.95489909  0.38241962  0.65619895    -0.69200
O1383       O  0.91693890  0.27534040  0.57905555    -0.88500
C1384       C  0.96645858  0.39333849  0.63231802     0.83700
C1385       C  0.90377735  0.40760539  0.62783314     1.05300
H1386       H  0.93992774  0.33651521  0.59582798     0.37100
O1387       O  0.91775191  0.32694266  0.59708693    -1.11200
O1388       O  0.86332290  0.28080209  0.62492545    -0.67800
Ni1389     Ni  0.90566332  0.30934854  0.63351055     1.26300
O1390       O  0.94991926  0.38784070  0.61056879    -0.68100
O1391       O  0.91572023  0.27733722  0.62608974    -0.80400
C1392       C  0.90216851  0.31006600  0.69314245     0.83100
O1393       O  0.89435361  0.29389673  0.67098867    -0.67500
Ni1394     Ni  0.90211523  0.30124607  0.56504533     1.27400
Ni1395     Ni  0.90709669  0.35818211  0.60187891     1.26100
H1396       H  0.87337979  0.33240448  0.64098719     0.37600
O1397       O  0.57514252  0.41095272  0.31144720    -0.82300
O1398       O  0.58403581  0.45479134  0.43508561    -0.67000
O1399       O  0.60316461  0.44298508  0.36010495    -1.13600
C1400       C  0.58310587  0.34593613  0.39623258     1.04600
O1401       O  0.61498282  0.43888153  0.45080976    -0.80200
O1402       O  0.63922203  0.41071177  0.42066135    -0.67800
Ni1403     Ni  0.58348580  0.44889849  0.32913577     1.34900
C1404       C  0.65246961  0.41860251  0.39694682     0.83300
O1405       O  0.60112008  0.49047525  0.38972410    -0.80800
O1406       O  0.59034759  0.48752571  0.34399342    -0.91000
C1407       C  0.60259617  0.45562205  0.45327551     0.82900
O1408       O  0.54282074  0.42792651  0.34408869    -0.69200
O1409       O  0.58409922  0.35743256  0.42039609    -0.88500
C1410       C  0.53202521  0.42578122  0.36858693     0.83700
C1411       C  0.59858454  0.00270115  0.36666002     1.05300
H1412       H  0.56094906  0.39439257  0.40329588     0.37100
O1413       O  0.58307004  0.40768501  0.40226900    -1.11200
O1414       O  0.63866572  0.41873997  0.37495341    -0.67800
Ni1415     Ni  0.59592847  0.40214016  0.36601869     1.26300
O1416       O  0.54886653  0.43433248  0.39020775    -0.68100
O1417       O  0.58806485  0.36103306  0.37347604    -0.80400
C1418       C  0.59469048  0.40219849  0.30789672     0.83100
O1419       O  0.60822612  0.39880456  0.32857806    -0.67500
Ni1420     Ni  0.59881259  0.39847264  0.43430070     1.27400
Ni1421     Ni  0.59212603  0.44918744  0.39692031     1.26100
H1422       H  0.62503909  0.45692321  0.35760057     0.37600
O1423       O  0.65715773  0.08594195  0.68698781    -0.82300
O1424       O  0.63012540  0.04465399  0.56305926    -0.67000
O1425       O  0.65683846  0.05409275  0.63878492    -1.13600
C1426       C  0.73668926  0.15100504  0.60472055     1.04600
O1427       O  0.67749641  0.05851622  0.54901410    -0.80200
O1428       O  0.72806397  0.08420062  0.58090186    -0.67800
Ni1429     Ni  0.62952903  0.04730813  0.66927386     1.34900
C1430       C  0.73265899  0.07756422  0.60523108     0.83300
O1431       O  0.60718383  0.00830888  0.60784195    -0.80800
O1432       O  0.59926975  0.00810929  0.65421458    -0.91000
C1433       C  0.64852410  0.04379594  0.54504225     0.82900
O1434       O  0.60904309  0.06693234  0.65404321    -0.69200
O1435       O  0.72886481  0.13895611  0.58044202    -0.88500
C1436       C  0.60418673  0.07257502  0.62947175     0.83700
C1437       C  0.59123149  0.49421115  0.63125257     1.05300
H1438       H  0.66754479  0.10385981  0.59523131     0.37100
O1439       O  0.67548689  0.08991314  0.59702739    -1.11200
O1440       O  0.71836150  0.07902590  0.62680214    -0.67800
Ni1441     Ni  0.69104339  0.09504315  0.63398408     1.26300
O1442       O  0.61488692  0.06616045  0.60779131    -0.68100
O1443       O  0.72450897  0.13633809  0.62741081    -0.80400
C1444       C  0.68552438  0.09635512  0.69173656     0.83100
O1445       O  0.70375447  0.09842160  0.67216145    -0.67500
Ni1446     Ni  0.70228037  0.09838015  0.56600147     1.27400
Ni1447     Ni  0.64155322  0.04902406  0.60157899     1.26100
H1448       H  0.66454874  0.04001958  0.64112543     0.37600
O1449       O  0.58829676  0.15984310  0.31011155    -0.82300
O1450       O  0.54386891  0.12561960  0.43354323    -0.67000
O1451       O  0.55634696  0.15612566  0.35887148    -1.13600
C1452       C  0.65390865  0.23162200  0.39564900     1.04600
O1453       O  0.55969263  0.17290909  0.44898816    -0.80200
O1454       O  0.59135025  0.22599997  0.42016311    -0.67800
Ni1455     Ni  0.54991004  0.13037725  0.32740231     1.34900
C1456       C  0.58304658  0.23119317  0.39687046     0.83300
O1457       O  0.50866099  0.10634832  0.38817339    -0.80800
O1458       O  0.51081038  0.09865012  0.34205821    -0.91000
C1459       C  0.54273136  0.14377796  0.45158501     0.82900
O1460       O  0.57025236  0.11007625  0.34146991    -0.69200
O1461       O  0.64242193  0.22052217  0.41969873    -0.88500
C1462       C  0.57332735  0.10218345  0.36576938     0.83700
C1463       C  0.99700168  0.09147601  0.36590304     1.05300
H1464       H  0.60445010  0.16210490  0.40138397     0.37100
O1465       O  0.59132875  0.17110660  0.40079868    -1.11200
O1466       O  0.58123318  0.21611861  0.37482421    -0.67800
Ni1467     Ni  0.59741411  0.18959325  0.36501206     1.26300
O1468       O  0.56504211  0.11064734  0.38784528    -0.68100
O1469       O  0.63860029  0.22251999  0.37294287    -0.80400
C1470       C  0.59715560  0.18819289  0.30689705     0.83100
O1471       O  0.60131174  0.20540833  0.32786667    -0.67500
Ni1472     Ni  0.60082326  0.19585256  0.43323733     1.27400
Ni1473     Ni  0.54985583  0.13884306  0.39538719     1.26100
H1474       H  0.54267310  0.16434529  0.35685441     0.37600
O1475       O  0.91770580  0.07749134  0.68907049    -0.82300
O1476       O  0.95640309  0.08392393  0.56337037    -0.67000
O1477       O  0.94697247  0.10412327  0.63862491    -1.13600
C1478       C  0.84689987  0.07826545  0.60644115     1.04600
O1479       O  0.93811192  0.11305945  0.54792080    -0.80200
O1480       O  0.90792795  0.13543444  0.57869350    -0.67800
Ni1481     Ni  0.95456733  0.08520300  0.66937643     1.34900
C1482       C  0.91724766  0.14992557  0.60164225     0.83300
O1483       O  0.99391140  0.10257960  0.60715674    -0.80800
O1484       O  0.99242249  0.09149740  0.65275909    -0.91000
C1485       C  0.95563353  0.10155192  0.54487357     0.82900
O1486       O  0.93253918  0.04412713  0.65554568    -0.69200
O1487       O  0.85728119  0.07816952  0.58189462    -0.88500
C1488       C  0.92994261  0.03295068  0.63120993     0.83700
C1489       C  0.50607464  0.09883250  0.62823258     1.05300
H1490       H  0.89733037  0.05969317  0.59815941     0.37100
O1491       O  0.91000549  0.08190462  0.59813935    -1.11200
O1492       O  0.92032466  0.13766623  0.62360307    -0.67800
Ni1493     Ni  0.90544723  0.09551005  0.63424193     1.26300
O1494       O  0.93851241  0.04957949  0.60928799    -0.68100
O1495       O  0.86351796  0.08593420  0.62836543    -0.80400
C1496       C  0.90822034  0.09650315  0.69240245     0.83100
O1497       O  0.90327059  0.10882334  0.67154672    -0.67500
Ni1498     Ni  0.89807625  0.09519271  0.56616420     1.27400
Ni1499     Ni  0.95207926  0.09249844  0.60168901     1.26100
H1500       H  0.96051351  0.12613393  0.64048665     0.37600
O1501       O  0.57708683  0.15938160  0.18715824    -0.82300
O1502       O  0.58323752  0.12646845  0.06311004    -0.67000
O1503       O  0.60485167  0.15649168  0.13756830    -1.13600
C1504       C  0.58470572  0.23403334  0.10363000     1.04600
O1505       O  0.61633988  0.17331133  0.04784054    -0.80200
O1506       O  0.64103978  0.22620540  0.07746077    -0.67800
Ni1507     Ni  0.58668347  0.13071269  0.16912170     1.34900
C1508       C  0.65441250  0.23142473  0.10083875     0.83300
O1509       O  0.59957097  0.10592558  0.10701511    -0.80800
O1510       O  0.59464890  0.09974047  0.15365399    -0.91000
C1511       C  0.60287047  0.14409300  0.04509020     0.82900
O1512       O  0.54549669  0.10906788  0.15621298    -0.69200
O1513       O  0.58589987  0.22399087  0.07925971    -0.88500
C1514       C  0.53324631  0.10242478  0.13229868     0.83700
C1515       C  0.59835326  0.09149494  0.12924415     1.05300
H1516       H  0.56268256  0.16463357  0.09641012     0.37100
O1517       O  0.58471576  0.17286150  0.09681951    -1.11200
O1518       O  0.64075954  0.21690103  0.12297868    -0.67800
Ni1519     Ni  0.59797922  0.19053138  0.13283156     1.26300
O1520       O  0.54885061  0.11243217  0.10969543    -0.68100
O1521       O  0.59016184  0.22399071  0.12615056    -0.80400
C1522       C  0.59583964  0.18789498  0.19080983     0.83100
O1523       O  0.61021921  0.20528646  0.17027959    -0.67500
Ni1524     Ni  0.60057785  0.19786908  0.06466012     1.27400
Ni1525     Ni  0.59228647  0.13947762  0.10112882     1.26100
H1526       H  0.62677990  0.16430936  0.13870646     0.37600
O1527       O  0.66156131  0.07607024  0.81288157    -0.82300
O1528       O  0.62910997  0.07943941  0.93684991    -0.67000
O1529       O  0.65929705  0.10244899  0.86230903    -1.13600
C1530       C  0.73537731  0.07895813  0.89419431     1.04600
O1531       O  0.67616810  0.11099478  0.95197668    -0.80200
O1532       O  0.72882513  0.13579958  0.92174691    -0.67800
Ni1533     Ni  0.63314426  0.08560057  0.83102346     1.34900
C1534       C  0.73415911  0.14977859  0.89853929     0.83300
O1535       O  0.60908894  0.09755084  0.89380283    -0.80800
O1536       O  0.60261019  0.09378973  0.84724480    -0.91000
C1537       C  0.64702852  0.09832003  0.95494811     0.82900
O1538       O  0.61107771  0.04403941  0.84341194    -0.69200
O1539       O  0.72543780  0.07997361  0.91869003    -0.88500
C1540       C  0.60463719  0.03129361  0.86723180     0.83700
C1541       C  0.59466620  0.09716201  0.87191207     1.05300
H1542       H  0.66623817  0.05836080  0.90231845     0.37100
O1543       O  0.67495489  0.08047993  0.90217798    -1.11200
O1544       O  0.71983977  0.13663975  0.87635695    -0.67800
Ni1545     Ni  0.69282417  0.09427966  0.86604714     1.26300
O1546       O  0.61468642  0.04634264  0.88989658    -0.68100
O1547       O  0.72565025  0.08518522  0.87188133    -0.80400
C1548       C  0.68948068  0.09608415  0.80827911     0.83100
O1549       O  0.70790855  0.10765904  0.82853451    -0.67500
Ni1550     Ni  0.70002079  0.09501481  0.93415913     1.27400
Ni1551     Ni  0.64221856  0.08929191  0.89879957     1.26100
H1552       H  0.66765157  0.12451025  0.86148946     0.37600
O1553       O  0.57894956  0.41861072  0.19128980    -0.82300
O1554       O  0.54218175  0.41289226  0.06433335    -0.67000
O1555       O  0.55159228  0.39368551  0.13949475    -1.13600
C1556       C  0.65077932  0.41698918  0.10387170     1.04600
O1557       O  0.55831935  0.38157073  0.04917850    -0.80200
O1558       O  0.58814840  0.35925365  0.07898955    -0.67800
Ni1559     Ni  0.54444546  0.41389243  0.17010893     1.34900
C1560       C  0.57993032  0.34603362  0.10258863     0.83300
O1561       O  0.50485695  0.39544067  0.10869877    -0.80800
O1562       O  0.50834327  0.41079686  0.15319377    -0.91000
C1563       C  0.54182993  0.39411999  0.04618282     0.82900
O1564       O  0.56989945  0.45436565  0.15591263    -0.69200
O1565       O  0.63973822  0.41566072  0.07962932    -0.88500
C1566       C  0.57134292  0.46518575  0.13171568     0.83700
C1567       C  0.99498349  0.40363633  0.13055519     1.05300
H1568       H  0.60120245  0.43661661  0.09693969     0.37100
O1569       O  0.58816694  0.41444240  0.09772775    -1.11200
O1570       O  0.57791087  0.35942179  0.12447717    -0.67800
Ni1571     Ni  0.59308327  0.40200469  0.13381758     1.26300
O1572       O  0.56086754  0.44808481  0.11011643    -0.68100
O1573       O  0.63487009  0.41114649  0.12650339    -0.80400
C1574       C  0.59140346  0.40195397  0.19255544     0.83100
O1575       O  0.59612675  0.38998563  0.17099330    -0.67500
Ni1576     Ni  0.59869890  0.39919097  0.06561507     1.27400
Ni1577     Ni  0.54648145  0.40480401  0.10252697     1.26100
H1578       H  0.53790689  0.37177453  0.14181991     0.37600
O1579       O  0.92201772  0.33618202  0.80906439    -0.82300
O1580       O  0.95753045  0.37011109  0.93528196    -0.67000
O1581       O  0.94834950  0.33844680  0.86087093    -1.13600
C1582       C  0.84815378  0.26516060  0.89658950     1.04600
O1583       O  0.94052100  0.32296817  0.95114128    -0.80200
O1584       O  0.91027023  0.26996687  0.92216865    -0.67800
Ni1585     Ni  0.95820174  0.36473171  0.82925878     1.34900
C1586       C  0.91809594  0.26366344  0.89880445     0.83300
O1587       O  0.99536826  0.38771820  0.89147613    -0.80800
O1588       O  0.99587294  0.39636282  0.84556551    -0.91000
C1589       C  0.95743841  0.35205834  0.95378763     0.82900
O1590       O  0.93676487  0.38498073  0.84171001    -0.69200
O1591       O  0.85938586  0.27568047  0.92065204    -0.88500
C1592       C  0.93335927  0.39388701  0.86569604     0.83700
C1593       C  0.50777590  0.40353336  0.86939517     1.05300
H1594       H  0.89884985  0.33456515  0.90248922     0.37100
O1595       O  0.91140114  0.32491053  0.90208746    -1.11200
O1596       O  0.91993681  0.27804648  0.87644781    -0.67800
Ni1597     Ni  0.90617914  0.30628891  0.86628695     1.26300
O1598       O  0.94024547  0.38542797  0.88824413    -0.68100
O1599       O  0.86385113  0.27456433  0.87375684    -0.80400
C1600       C  0.90836907  0.30695960  0.80754623     0.83100
O1601       O  0.90278233  0.29022596  0.82907267    -0.67500
Ni1602     Ni  0.90028579  0.30022534  0.93464121     1.27400
Ni1603     Ni  0.95342883  0.35618991  0.89737257     1.26100
H1604       H  0.96129645  0.32928445  0.85959844     0.37600
O1605       O  0.83910884  0.41719614  0.18907697    -0.82300
O1606       O  0.87262539  0.45690401  0.06370906    -0.67000
O1607       O  0.84132848  0.44652185  0.13869774    -1.13600
C1608       C  0.76640596  0.34809332  0.10289710     1.04600
O1609       O  0.82579987  0.44177857  0.04851140    -0.80200
O1610       O  0.77317200  0.41332543  0.07861519    -0.67800
Ni1611     Ni  0.86758483  0.45459779  0.16982715     1.34900
C1612       C  0.76679339  0.41981978  0.10255439     0.83300
O1613       O  0.89119063  0.49351459  0.10809976    -0.80800
O1614       O  0.89892734  0.49306427  0.15410013    -0.91000
C1615       C  0.85494927  0.45755758  0.04535536     0.82900
O1616       O  0.88799849  0.43385471  0.15587999    -0.69200
O1617       O  0.77570126  0.36037683  0.07880787    -0.88500
C1618       C  0.89585545  0.43000692  0.13154692     0.83700
C1619       C  0.90768002  0.00226810  0.13297973     1.05300
H1620       H  0.83551485  0.39749501  0.09567062     0.37100
O1621       O  0.82654527  0.41063788  0.09690031    -1.11200
O1622       O  0.78041763  0.41940144  0.12462913    -0.67800
Ni1623     Ni  0.80850804  0.40486493  0.13327425     1.26300
O1624       O  0.88701107  0.43722791  0.10946184    -0.68100
O1625       O  0.77654321  0.36289704  0.12588661    -0.80400
C1626       C  0.81014273  0.40524602  0.19188864     0.83100
O1627       O  0.79310736  0.40097279  0.17099551    -0.67500
Ni1628     Ni  0.80158820  0.40138997  0.06494051     1.27400
Ni1629     Ni  0.85880565  0.45212739  0.10183858     1.26100
H1630       H  0.83267492  0.45990048  0.14058700     0.37600
O1631       O  0.92756643  0.08333516  0.81047011    -0.82300
O1632       O  0.91467676  0.03908813  0.93562782    -0.67000
O1633       O  0.89920585  0.05161239  0.86009138    -1.13600
C1634       C  0.91706749  0.14810001  0.89751915     1.04600
O1635       O  0.88239963  0.05431453  0.95007306    -0.80200
O1636       O  0.86011600  0.08388156  0.92026036    -0.67800
Ni1637     Ni  0.92163911  0.04708030  0.82987606     1.34900
C1638       C  0.84781774  0.07578362  0.89640688     0.83300
O1639       O  0.90037525  0.00405403  0.88986106    -0.80800
O1640       O  0.91734089  0.00967296  0.84547845    -0.91000
C1641       C  0.89565568  0.03861944  0.95370102     0.82900
O1642       O  0.96112443  0.07163415  0.84593552    -0.69200
O1643       O  0.91565725  0.13643768  0.92151570    -0.88500
C1644       C  0.97055808  0.07235979  0.87052190     0.83700
C1645       C  0.91049488  0.49529870  0.86470584     1.05300
H1646       H  0.93892720  0.09980945  0.90415998     0.37100
O1647       O  0.91688949  0.08634573  0.90280372    -1.11200
O1648       O  0.86235863  0.07491915  0.87481966    -0.67800
Ni1649     Ni  0.90553445  0.09218529  0.86653918     1.26300
O1650       O  0.95227324  0.06065187  0.89137389    -0.68100
O1651       O  0.91253329  0.13311665  0.87459178    -0.80400
C1652       C  0.90893795  0.09340364  0.80810809     0.83100
O1653       O  0.89470214  0.09595156  0.82912296    -0.67500
Ni1654     Ni  0.89970815  0.09508645  0.93460824     1.27400
Ni1655     Ni  0.90850306  0.04507131  0.89722367     1.26100
H1656       H  0.87758497  0.03742564  0.85687457     0.37600
C1657       C  0.84928836  0.48964671  0.00936593    -0.14800
C1658       C  0.86750426  0.47871727  0.02110721     0.07400
C1659       C  0.89675646  0.48801273  0.00927165    -0.14800
C1660       C  0.90397053  0.00518781  0.98795811    -0.14800
C1661       C  0.88640945  0.01806177  0.97841226     0.07400
C1662       C  0.85899498  0.01106034  0.99274779    -0.14800
H1663       H  0.82677390  0.48314659  0.01807744     0.11400
H1664       H  0.91124548  0.47986710  0.01792958     0.11400
H1665       H  0.92523199  0.01025016  0.97737145     0.11400
H1666       H  0.84484950  0.02049694  0.98602720     0.11400
C1667       C  0.91288488  0.42427658  0.84224991    -0.14800
C1668       C  0.92227779  0.41633241  0.86688560     0.07400
C1669       C  0.92386272  0.43227845  0.89168181    -0.14800
C1670       C  0.91793381  0.45680822  0.89142572    -0.14800
C1671       C  0.91062288  0.46594440  0.86633718     0.07400
C1672       C  0.90733514  0.44891878  0.84195212    -0.14800
H1673       H  0.91110729  0.41232167  0.82280906     0.11400
H1674       H  0.93111184  0.42680606  0.91096765     0.11400
H1675       H  0.92090229  0.46979319  0.91046391     0.11400
H1676       H  0.90154118  0.45538248  0.82237846     0.11400
C1677       C  0.92235624  0.22240829  0.87212515    -0.20800
C1678       C  0.92355037  0.23716010  0.89760754     0.07400
C1679       C  0.92632377  0.22411596  0.92247640    -0.14800
C1680       C  0.92601267  0.19611396  0.92211615    -0.14800
C1681       C  0.92271836  0.18020192  0.89687907     0.07400
C1682       C  0.92183674  0.19412903  0.87176780    -0.14800
H1683       H  0.92013544  0.23184049  0.85258888     0.11400
H1684       H  0.92751510  0.23494427  0.94244996     0.11400
H1685       H  0.92698328  0.18630702  0.94189368     0.11400
H1686       H  0.91937724  0.18256951  0.85196427     0.11400
C1687       C  0.50988363  0.35501654  0.01057757    -0.14800
C1688       C  0.52028244  0.38429987  0.02239380     0.07400
C1689       C  0.50974951  0.40330035  0.01134044    -0.14800
C1690       C  0.98967316  0.39354835  0.98887529    -0.14800
C1691       C  0.97910145  0.36399431  0.97745542     0.07400
C1692       C  0.98942290  0.34506791  0.98888477    -0.14800
H1693       H  0.51735484  0.33972573  0.01871530     0.11400
H1694       H  0.51741754  0.42598665  0.02008339     0.11400
H1695       H  0.98199578  0.40855249  0.98046792     0.11400
H1696       H  0.98186534  0.32225997  0.98045741     0.11400
C1697       C  0.95665962  0.41184933  0.10400330    -0.14800
C1698       C  0.96569208  0.40402147  0.12890512     0.07400
C1699       C  0.94889428  0.40095955  0.15352599    -0.14800
C1700       C  0.92501631  0.40759406  0.15379495    -0.14800
C1701       C  0.91738567  0.41776543  0.12947334     0.07400
C1702       C  0.93272183  0.41877209  0.10429763    -0.14800
H1703       H  0.96935510  0.41455924  0.08473834     0.11400
H1704       H  0.45384947  0.39271782  0.17223708     0.11400
H1705       H  0.91346652  0.40607800  0.17349937     0.11400
H1706       H  0.92734685  0.42642804  0.08518433     0.11400
C1707       C  0.70126630  0.43141270  0.08058526    -0.14800
C1708       C  0.68335142  0.42413228  0.10521620     0.07400
C1709       C  0.69578692  0.42046130  0.13011447    -0.14800
C1710       C  0.72432090  0.42151212  0.12982504    -0.14800
C1711       C  0.74083465  0.42609803  0.10461360     0.07400
C1712       C  0.72955519  0.43231494  0.08028291    -0.14800
H1713       H  0.69273900  0.43486073  0.06107284     0.11400
H1714       H  0.68272309  0.41502854  0.14949822     0.11400
H1715       H  0.73240131  0.41667963  0.14894980     0.11400
H1716       H  0.74185955  0.43633185  0.06057953     0.11400
C1717       C  0.77392001  0.19588160  0.87155035    -0.14800
C1718       C  0.75953340  0.18233565  0.89717190     0.07400
C1719       C  0.77215257  0.19881144  0.92193083    -0.14800
C1720       C  0.79974968  0.22692963  0.92134458    -0.14800
C1721       C  0.81573522  0.23923689  0.89599242     0.07400
C1722       C  0.80186668  0.22402259  0.87096893    -0.14800
H1723       H  0.76467576  0.18380345  0.85207153     0.11400
H1724       H  0.76148150  0.18926322  0.94198712     0.11400
H1725       H  0.80941785  0.23806831  0.94108175     0.11400
H1726       H  0.81339296  0.23293694  0.85108390     0.11400
C1727       C  0.58033382  0.47630246  0.84863458    -0.14800
C1728       C  0.58345778  0.99747974  0.86814591     0.07400
C1729       C  0.56714786  0.48210150  0.89625227    -0.14800
C1730       C  0.54339534  0.45116518  0.89624668    -0.14800
C1731       C  0.53718756  0.43300616  0.87200777     0.07400
C1732       C  0.55659363  0.44559585  0.84858216    -0.14800
H1733       H  0.58688343  0.99107983  0.82359568     0.11400
H1734       H  0.57020639  0.49613493  0.91457271     0.11400
H1735       H  0.52852935  0.44214482  0.91449741     0.11400
H1736       H  0.05251399  0.43224862  0.82962813     0.11400
C1737       C  0.77848375  0.07710134  0.86802135    -0.14800
C1738       C  0.76058267  0.07154353  0.89246020     0.07400
C1739       C  0.76921590  0.06212514  0.91670199    -0.14800
C1740       C  0.79652210  0.06117316  0.91731109    -0.14800
C1741       C  0.81574857  0.06925790  0.89362083     0.07400
C1742       C  0.80582016  0.07584171  0.86857796    -0.14800
H1743       H  0.77242502  0.08425314  0.84898771     0.11400
H1744       H  0.75574638  0.05710243  0.93581503     0.11400
H1745       H  0.80340498  0.05567288  0.93680286     0.11400
H1746       H  0.82028015  0.08225575  0.84999624     0.11400
C1747       C  0.54658648  0.08550048  0.89859055    -0.14800
C1748       C  0.56579497  0.09828666  0.87494873     0.07400
C1749       C  0.55469125  0.10712328  0.85214444    -0.14800
C1750       C  0.52421032  0.10071044  0.85183515    -0.14800
C1751       C  0.00425173  0.08583150  0.87418612     0.07400
C1752       C  0.51584995  0.07883398  0.89820530    -0.14800
H1753       H  0.55451601  0.07837343  0.91645996     0.11400
H1754       H  0.56905698  0.11735047  0.83378331     0.11400
H1755       H  0.51600799  0.10638047  0.83324070     0.11400
H1756       H  0.00128512  0.06805270  0.91594959     0.11400
C1757       C  0.98438924  0.06676076  0.10561251    -0.14800
C1758       C  0.49938678  0.08082884  0.13139192     0.07400
C1759       C  0.98210064  0.07121645  0.15584115    -0.14800
C1760       C  0.95169189  0.04700396  0.15614047    -0.14800
C1761       C  0.93741017  0.03168520  0.13135830     0.07400
C1762       C  0.95360402  0.04252990  0.10590582    -0.14800
H1763       H  0.49647584  0.07454932  0.08647043     0.11400
H1764       H  0.99255575  0.08158903  0.17560228     0.11400
H1765       H  0.93971195  0.03940826  0.17603762     0.11400
H1766       H  0.94489309  0.52936794  0.08468255     0.11400
C1767       C  0.69931827  0.27180333  0.12802328    -0.14800
C1768       C  0.68667556  0.25723852  0.10240478     0.07400
C1769       C  0.70327926  0.27059864  0.07766964    -0.14800
C1770       C  0.73032617  0.29915822  0.07821394    -0.14800
C1771       C  0.74147463  0.31525669  0.10351094     0.07400
C1772       C  0.72646893  0.30064364  0.12856957    -0.14800
H1773       H  0.68712692  0.26201094  0.14748003     0.11400
H1774       H  0.69445218  0.25981512  0.05761764     0.11400
H1775       H  0.74152907  0.30934223  0.05849336     0.11400
H1776       H  0.73464799  0.31222028  0.14843087     0.11400
C1777       C  0.56744464  0.29580543  0.08074775    -0.14800
C1778       C  0.57459111  0.31428521  0.10473619     0.07400
C1779       C  0.58115883  0.30401347  0.12959289    -0.14800
C1780       C  0.58286573  0.27691727  0.12981389    -0.14800
C1781       C  0.57781375  0.25957139  0.10521510     0.07400
C1782       C  0.56889424  0.26872038  0.08100897    -0.14800
H1783       H  0.56208325  0.30303136  0.06136797     0.11400
H1784       H  0.58699759  0.31795802  0.14835888     0.11400
H1785       H  0.58973371  0.27049662  0.14880694     0.11400
H1786       H  0.56438627  0.25571075  0.06177270     0.11400
C1787       C  0.58790529  0.04404049  0.10250753    -0.14800
C1788       C  0.59873203  0.06222147  0.12680230     0.07400
C1789       C  0.60483847  0.04980662  0.15039348    -0.14800
C1790       C  0.59767970  0.01908659  0.15060838    -0.14800
C1791       C  0.58408915  0.49899161  0.12936111     0.07400
C1792       C  0.58053962  0.01307950  0.10276914    -0.14800
H1793       H  0.58290434  0.05299513  0.08400614     0.11400
H1794       H  0.61351448  0.06333970  0.16929564     0.11400
H1795       H  0.60129329  0.00988504  0.16967495     0.11400
H1796       H  0.57297491  0.49866786  0.08571236     0.11400
C1797       C  0.60421055  0.09104830  0.98824468    -0.14800
C1798       C  0.63477610  0.10867946  0.97834715     0.07400
C1799       C  0.65418899  0.13753362  0.99059782    -0.14800
C1800       C  0.64340661  0.14877618  0.01193569    -0.14800
C1801       C  0.61306517  0.13125960  0.02210976     0.07400
C1802       C  0.59355002  0.10208759  0.01032000    -0.14800
H1803       H  0.58874789  0.06875391  0.97910930     0.11400
H1804       H  0.67776553  0.15183421  0.98334901     0.11400
H1805       H  0.65908579  0.17120273  0.02075021     0.11400
H1806       H  0.57004016  0.08815282  0.01784015     0.11400
C1807       C  0.87705825  0.08283331  0.73624610    -0.14800
C1808       C  0.90360997  0.10368862  0.72125070     0.07400
C1809       C  0.92956645  0.12555750  0.73589427    -0.14800
C1810       C  0.93012111  0.12455054  0.76504402    -0.14800
C1811       C  0.90451667  0.10200059  0.77995636     0.07400
C1812       C  0.87740144  0.08221475  0.76551248    -0.14800
H1813       H  0.85716198  0.06518604  0.72530739     0.11400
H1814       H  0.95055069  0.14125398  0.72468341     0.11400
H1815       H  0.95143959  0.13956437  0.77575843     0.11400
H1816       H  0.85768943  0.06413332  0.77659620     0.11400
C1817       C  0.00812663  0.15043839  0.48595104    -0.14800
C1818       C  0.51984400  0.13173344  0.47480028     0.07400
C1819       C  0.51024770  0.10289872  0.48718496    -0.14800
C1820       C  0.48941118  0.09279469  0.50991403    -0.14800
C1821       C  0.97712556  0.11123890  0.52050971     0.07400
C1822       C  0.98684981  0.14003723  0.50805195    -0.14800
H1823       H  0.01536753  0.17294636  0.47711577     0.11400
H1824       H  0.51937928  0.08856431  0.47971665     0.11400
H1825       H  0.48276331  0.07077196  0.51949526     0.11400
H1826       H  0.97851029  0.15493961  0.51582952     0.11400
C1827       C  0.62784504  0.20799084  0.26281124    -0.14800
C1828       C  0.60077002  0.19969700  0.27822010     0.07400
C1829       C  0.57406635  0.19404608  0.26420354    -0.14800
C1830       C  0.57353473  0.19385214  0.23507365    -0.14800
C1831       C  0.59983871  0.19972003  0.21953230     0.07400
C1832       C  0.62747018  0.20835553  0.23351687    -0.14800
H1833       H  0.64840459  0.21154795  0.27328206     0.11400
H1834       H  0.55276941  0.18680420  0.27574150     0.11400
H1835       H  0.55184829  0.18644997  0.22468369     0.11400
H1836       H  0.64775773  0.21210417  0.22188412     0.11400
C1837       C  0.68216591  0.11916191  0.73668327    -0.14800
C1838       C  0.69616948  0.10592806  0.72059059     0.07400
C1839       C  0.71437136  0.09583001  0.73394120    -0.14800
C1840       C  0.71544836  0.09569161  0.76327908    -0.14800
C1841       C  0.69867583  0.10604933  0.77923608     0.07400
C1842       C  0.68342639  0.11922080  0.76570997    -0.14800
H1843       H  0.66801837  0.12709109  0.72687848     0.11400
H1844       H  0.72505727  0.08519841  0.72193155     0.11400
H1845       H  0.72686342  0.08492107  0.77338796     0.11400
H1846       H  0.67008632  0.12701552  0.77768470     0.11400
C1847       C  0.77507158  0.07801216  0.63287515    -0.14800
C1848       C  0.75748385  0.06997806  0.60838908     0.07400
C1849       C  0.76710175  0.05951081  0.58518977    -0.14800
C1850       C  0.79508463  0.05980575  0.58548300    -0.14800
C1851       C  0.81430526  0.07084887  0.60891078     0.07400
C1852       C  0.80331859  0.07852022  0.63311859    -0.14800
H1853       H  0.76824376  0.08623045  0.65107801     0.11400
H1854       H  0.75383594  0.05279545  0.56615674     0.11400
H1855       H  0.80249988  0.05315109  0.56664578     0.11400
H1856       H  0.81745012  0.08694813  0.65157871     0.11400
C1857       C  0.57784407  0.09923005  0.65008155    -0.14800
C1858       C  0.58398964  0.08607652  0.62658191     0.07400
C1859       C  0.56795099  0.08285457  0.60177457    -0.14800
C1860       C  0.54416171  0.08989101  0.60138293    -0.14800
C1861       C  0.53611795  0.10013381  0.62581109     0.07400
C1862       C  0.55415217  0.10611085  0.64971374    -0.14800
H1863       H  0.59021256  0.10260910  0.66936436     0.11400
H1864       H  0.57228762  0.07290511  0.58331719     0.11400
H1865       H  0.03078127  0.08542071  0.58318154     0.11400
H1866       H  0.54869889  0.11433037  0.66873835     0.11400
C1867       C  0.59268462  0.48618774  0.49009485    -0.14800
C1868       C  0.61274899  0.47823633  0.47641320     0.07400
C1869       C  0.64340551  0.49182369  0.48524801    -0.14800
C1870       C  0.65392718  0.51283085  0.50726672    -0.14800
C1871       C  0.63678834  0.02344434  0.52017079     0.07400
C1872       C  0.60587157  0.00974124  0.51167493    -0.14800
H1873       H  0.56890562  0.47593233  0.48366120     0.11400
H1874       H  0.65944008  0.48631713  0.47493438     0.11400
H1875       H  0.67775200  0.52271660  0.51345662     0.11400
H1876       H  0.58984398  0.01471164  0.52271278     0.11400
C1877       C  0.59127096  0.04202425  0.39309110    -0.14800
C1878       C  0.59936035  0.03259748  0.36816444     0.07400
C1879       C  0.60320218  0.04933126  0.34362055    -0.14800
C1880       C  0.59668627  0.07331198  0.34344133    -0.14800
C1881       C  0.58589856  0.08102048  0.36775956     0.07400
C1882       C  0.58449678  0.06600027  0.39287806    -0.14800
H1883       H  0.59469886  0.53392222  0.41323488     0.11400
H1884       H  0.60969389  0.04283655  0.32415100     0.11400
H1885       H  0.59859664  0.08473808  0.32378838     0.11400
H1886       H  0.57648732  0.07152794  0.41199282     0.11400
C1887       C  0.57155297  0.29690541  0.41991995    -0.14800
C1888       C  0.57741999  0.31386209  0.39507609     0.07400
C1889       C  0.58096727  0.30106439  0.36999049    -0.14800
C1890       C  0.58065791  0.27290556  0.37014699    -0.14800
C1891       C  0.57699460  0.25719841  0.39540588     0.07400
C1892       C  0.57145453  0.26902296  0.42008924    -0.14800
H1893       H  0.56841951  0.30582826  0.43960699     0.11400
H1894       H  0.58550584  0.31349170  0.35048146     0.11400
H1895       H  0.58513187  0.26441010  0.35079837     0.11400
H1896       H  0.56830190  0.25733623  0.43983910     0.11400
C1897       C  0.57975123  0.37060277  0.26463200    -0.14800
C1898       C  0.60138573  0.39692685  0.27909755     0.07400
C1899       C  0.62414276  0.42217977  0.26399586    -0.14800
C1900       C  0.62335957  0.42236683  0.23481347    -0.14800
C1901       C  0.60011066  0.39708483  0.22040469     0.07400
C1902       C  0.57931631  0.37056937  0.23538544    -0.14800
H1903       H  0.56148670  0.35128394  0.27593753     0.11400
H1904       H  0.64044968  0.44303073  0.27481186     0.11400
H1905       H  0.63903759  0.44333053  0.22367733     0.11400
H1906       H  0.56065995  0.35120782  0.22467895     0.11400
C1907       C  0.87347213  0.29705884  0.73778357    -0.14800
C1908       C  0.89587174  0.29561494  0.72092957     0.07400
C1909       C  0.91762960  0.28985771  0.73348848    -0.14800
C1910       C  0.91883101  0.28872328  0.76271055    -0.14800
C1911       C  0.89842102  0.29351967  0.77957923     0.07400
C1912       C  0.87477051  0.29608841  0.76687985    -0.14800
H1913       H  0.85701235  0.30232200  0.72855715     0.11400
H1914       H  0.93565212  0.28958854  0.72094886     0.11400
H1915       H  0.93785010  0.28769380  0.77208641     0.11400
H1916       H  0.85941013  0.30075962  0.77944152     0.11400
C1917       C  0.77849097  0.19605155  0.63084745    -0.14800
C1918       C  0.76212376  0.18342555  0.60605761     0.07400
C1919       C  0.77222520  0.20108397  0.58146195    -0.14800
C1920       C  0.79942996  0.22947048  0.58103167    -0.14800
C1921       C  0.81721177  0.24097570  0.60519105     0.07400
C1922       C  0.80584987  0.22466576  0.63042176    -0.14800
H1923       H  0.77119625  0.18306823  0.65015760     0.11400
H1924       H  0.75987272  0.19232843  0.56209507     0.11400
H1925       H  0.80735307  0.24167628  0.56136394     0.11400
H1926       H  0.81910125  0.23297467  0.64939310     0.11400
C1927       C  0.54514210  0.45542391  0.60458402    -0.14800
C1928       C  0.56222849  0.46421793  0.62938152     0.07400
C1929       C  0.54900113  0.44665665  0.65361220    -0.14800
C1930       C  0.51862015  0.42227717  0.65364300    -0.14800
C1931       C  0.00026574  0.41495107  0.63046831     0.07400
C1932       C  0.51450181  0.43111641  0.60466792    -0.14800
H1933       H  0.55468689  0.46868430  0.58561768     0.11400
H1934       H  0.56165587  0.45274986  0.67298385     0.11400
H1935       H  0.00834830  0.41079355  0.67425489     0.11400
H1936       H  0.50128865  0.42608807  0.58570053     0.11400
C1937       C  0.92905046  0.22721922  0.57880653    -0.14800
C1938       C  0.92448366  0.23924800  0.60395755     0.07400
C1939       C  0.92110384  0.22313577  0.62890850    -0.14800
C1940       C  0.92061287  0.19486580  0.62843006    -0.14800
C1941       C  0.92323070  0.18205472  0.60298269     0.07400
C1942       C  0.92824633  0.19894965  0.57831122    -0.14800
H1943       H  0.93187191  0.23895827  0.55915327     0.11400
H1944       H  0.91732954  0.23157159  0.64860486     0.11400
H1945       H  0.91647179  0.18224115  0.64777708     0.11400
H1946       H  0.93051500  0.18980597  0.55840357     0.11400
C1947       C  0.89622098  0.44860830  0.64899294    -0.14800
C1948       C  0.90279982  0.43636418  0.62522598     0.07400
C1949       C  0.91245711  0.45381630  0.60051037    -0.14800
C1950       C  0.91804744  0.48421751  0.60041678    -0.14800
C1951       C  0.91752031  0.99918192  0.62885310     0.07400
C1952       C  0.90137029  0.47860436  0.64882234    -0.14800
H1953       H  0.88843314  0.43541771  0.66818356     0.11400
H1954       H  0.91778488  0.44478414  0.58195117     0.11400
H1955       H  0.92753102  0.49802311  0.58173012     0.11400
H1956       H  0.90340367  0.99010308  0.67244024     0.11400
C1957       C  0.79218043  0.41609981  0.26554649    -0.14800
C1958       C  0.79800251  0.39489040  0.27925612     0.07400
C1959       C  0.80052363  0.37253274  0.26341048    -0.14800
C1960       C  0.80038782  0.37332351  0.23419746    -0.14800
C1961       C  0.79734305  0.39625670  0.22038812     0.07400
C1962       C  0.79162413  0.41662750  0.23625523    -0.14800
H1963       H  0.79105997  0.43407959  0.27732360     0.11400
H1964       H  0.80584491  0.35649899  0.27352894     0.11400
H1965       H  0.80565872  0.35794349  0.22241338     0.11400
H1966       H  0.79016087  0.43508431  0.22605414     0.11400
C1967       C  0.84680220  0.35871578  0.49077436    -0.14800
C1968       C  0.86607991  0.38738520  0.47798787     0.07400
C1969       C  0.89650157  0.40541456  0.48762625    -0.14800
C1970       C  0.90707795  0.39506399  0.50992443    -0.14800
C1971       C  0.88769969  0.36610596  0.52229126     0.07400
C1972       C  0.85754490  0.34811285  0.51232280    -0.14800
H1973       H  0.82334572  0.34408661  0.48381239     0.11400
H1974       H  0.91192733  0.42756853  0.47815063     0.11400
H1975       H  0.93046061  0.40938135  0.51716837     0.11400
H1976       H  0.84196300  0.32581307  0.52150290     0.11400
C1977       C  0.93057191  0.01626292  0.39304387    -0.14800
C1978       C  0.91788385  0.50048811  0.36854080     0.07400
C1979       C  0.92783705  0.51763106  0.34359622    -0.14800
C1980       C  0.95139646  0.04822314  0.34253142    -0.14800
C1981       C  0.96673060  0.06256342  0.36730791     0.07400
C1982       C  0.95519699  0.04677598  0.39274892    -0.14800
H1983       H  0.92337760  0.00405567  0.41274910     0.11400
H1984       H  0.91751342  0.50724155  0.32380187     0.11400
H1985       H  0.95945726  0.05981816  0.32260640     0.11400
H1986       H  0.96648220  0.05721301  0.41222061     0.11400
C1987       C  0.73135824  0.29572963  0.41981422    -0.14800
C1988       C  0.74222706  0.31448221  0.39596230     0.07400
C1989       C  0.72603966  0.30348374  0.37083635    -0.14800
C1990       C  0.69819021  0.27541824  0.37017262    -0.14800
C1991       C  0.68612501  0.25772753  0.39459328     0.07400
C1992       C  0.70371770  0.26758685  0.41910250    -0.14800
H1993       H  0.74351691  0.30346963  0.43938805     0.11400
H1994       H  0.73380222  0.31751210  0.35212921     0.11400
H1995       H  0.68528533  0.26852428  0.35094426     0.11400
H1996       H  0.69534423  0.25437850  0.43822733     0.11400
C1997       C  0.94909510  0.39531734  0.34878282    -0.14800
C1998       C  0.93713230  0.40234227  0.37254023     0.07400
C1999       C  0.95522906  0.41311763  0.39667483    -0.14800
C2000       C  0.98568549  0.41893150  0.39624236    -0.14800
C2001       C  0.49848517  0.41424799  0.37130808     0.07400
C2002       C  0.97920675  0.40079632  0.34842144    -0.14800
H2003       H  0.93556283  0.38682722  0.32997318     0.11400
H2004       H  0.94657672  0.41898988  0.41519371     0.11400
H2005       H  0.49938349  0.42809635  0.41447321     0.11400
H2006       H  0.98799578  0.39622760  0.32928045     0.11400
C2007       C  0.70239891  0.43240996  0.41922588    -0.14800
C2008       C  0.68487168  0.42576614  0.39489425     0.07400
C2009       C  0.69683705  0.42122924  0.36969797    -0.14800
C2010       C  0.72439012  0.42040005  0.36948176    -0.14800
C2011       C  0.74045713  0.42428265  0.39443720     0.07400
C2012       C  0.72986913  0.43174410  0.41899512    -0.14800
H2013       H  0.69400504  0.43643497  0.43887264     0.11400
H2014       H  0.68382588  0.41608167  0.35058804     0.11400
H2015       H  0.73204553  0.41486766  0.35015747     0.11400
H2016       H  0.74191362  0.43544543  0.43851080     0.11400
O2017       O  0.84052163  0.91564636  0.30817636    -0.82300
O2018       O  0.87339041  0.91879737  0.43687308    -0.67000
O2019       O  0.84341527  0.89563197  0.36239824    -1.13600
C2020       C  0.76842689  0.92062403  0.39626153     1.04600
O2021       O  0.82633289  0.88750085  0.45294052    -0.80200
O2022       O  0.77417000  0.86259143  0.42305457    -0.67800
Ni2023     Ni  0.87068147  0.91390913  0.33130730     1.34900
C2024       C  0.76867899  0.84928997  0.39943892     0.83300
O2025       O  0.89192184  0.89831086  0.39393591    -0.80800
O2026       O  0.90406353  0.91295053  0.34945511    -0.91000
C2027       C  0.85546748  0.90001080  0.45519770     0.82900
O2028       O  0.88485523  0.95510211  0.34335765    -0.69200
O2029       O  0.77702049  0.91836597  0.42073810    -0.88500
C2030       C  0.89523579  0.96726656  0.36703045     0.83700
C2031       C  0.90948135  0.90456132  0.37269740     1.05300
H2032       H  0.83767408  0.94071861  0.40380788     0.37100
O2033       O  0.82846664  0.91852691  0.40329745    -1.11200
O2034       O  0.78294508  0.86301534  0.37725977    -0.67800
Ni2035     Ni  0.81101281  0.90520291  0.36730914     1.26300
O2036       O  0.88922359  0.95135130  0.38937912    -0.68100
O2037       O  0.77928683  0.91549787  0.37383360    -0.80400
C2038       C  0.81124553  0.90113274  0.30825270     0.83100
O2039       O  0.79526169  0.89223848  0.33051786    -0.67500
Ni2040     Ni  0.80259491  0.90346332  0.43553462     1.27400
Ni2041     Ni  0.86023662  0.90856948  0.39906834     1.26100
H2042       H  0.83475065  0.87355023  0.36104769     0.37600
O2043       O  0.92153433  0.83885293  0.68885437    -0.82300
O2044       O  0.91642017  0.87195218  0.56304422    -0.67000
O2045       O  0.89579299  0.84175224  0.63792770    -1.13600
C2046       C  0.91844515  0.76586278  0.60192561     1.04600
O2047       O  0.88499171  0.82488431  0.54747565    -0.80200
O2048       O  0.86104954  0.77218130  0.57741911    -0.67800
Ni2049     Ni  0.91476801  0.86823031  0.66901250     1.34900
C2050       C  0.84778426  0.76659462  0.60118572     0.83300
O2051       O  0.89874902  0.89132202  0.60754596    -0.80800
O2052       O  0.90968881  0.90052884  0.65305939    -0.91000
C2053       C  0.89789377  0.85406416  0.54473544     0.82900
O2054       O  0.95580382  0.88639094  0.65497730    -0.69200
O2055       O  0.91682710  0.77557244  0.57773651    -0.88500
C2056       C  0.96721331  0.89492040  0.63066122     0.83700
C2057       C  0.90323934  0.90747041  0.62949629     1.05300
H2058       H  0.93886351  0.83535244  0.59503954     0.37100
O2059       O  0.91674076  0.82640572  0.59600531    -1.11200
O2060       O  0.86139687  0.78116821  0.62315590    -0.67800
Ni2061     Ni  0.90399288  0.80857628  0.63213235     1.26300
O2062       O  0.95078306  0.88710589  0.60874471    -0.68100
O2063       O  0.91309845  0.77603321  0.62469450    -0.80400
C2064       C  0.90474089  0.80973263  0.69058301     0.83100
O2065       O  0.89192753  0.79314439  0.66937072    -0.67500
Ni2066     Ni  0.90141094  0.80107481  0.56389877     1.27400
Ni2067     Ni  0.90759583  0.85875618  0.60111066     1.26100
H2068       H  0.87379297  0.83341556  0.64001562     0.37600
O2069       O  0.57426329  0.91030537  0.31324919    -0.82300
O2070       O  0.58570446  0.95603899  0.43482787    -0.67000
O2071       O  0.60418814  0.94356290  0.36005525    -1.13600
C2072       C  0.58537047  0.84722418  0.39718489     1.04600
O2073       O  0.61767067  0.94139211  0.45044765    -0.80200
O2074       O  0.64207438  0.91344172  0.42035994    -0.67800
Ni2075     Ni  0.58448413  0.94953271  0.32911964     1.34900
C2076       C  0.65472947  0.92065428  0.39637446     0.83300
O2077       O  0.60126946  0.99081895  0.38916818    -0.80800
O2078       O  0.59312586  0.98924702  0.34290042    -0.91000
C2079       C  0.60498301  0.95789452  0.45267188     0.82900
O2080       O  0.54404095  0.93070100  0.34455688    -0.69200
O2081       O  0.58742385  0.85939918  0.42123405    -0.88500
C2082       C  0.53326879  0.92710009  0.36922638     0.83700
C2083       C  0.59732663  0.50178287  0.36735462     1.05300
H2084       H  0.56316726  0.89533650  0.40413976     0.37100
O2085       O  0.58521938  0.90886916  0.40263843    -1.11200
O2086       O  0.64023083  0.91951884  0.37440863    -0.67800
Ni2087     Ni  0.59720031  0.90272083  0.36623395     1.26300
O2088       O  0.55004789  0.93413317  0.39076247    -0.68100
O2089       O  0.58950771  0.86174342  0.37417487    -0.80400
C2090       C  0.59423223  0.90240224  0.30835589     0.83100
O2091       O  0.60836951  0.89874073  0.32841558    -0.67500
Ni2092     Ni  0.60181536  0.90066687  0.43458328     1.27400
Ni2093     Ni  0.59346214  0.95003035  0.39679783     1.26100
H2094       H  0.62604904  0.95750103  0.35746062     0.37600
O2095       O  0.65708186  0.58511730  0.68770517    -0.82300
O2096       O  0.62743270  0.54205861  0.56410247    -0.67000
O2097       O  0.65580908  0.55340995  0.63927875    -1.13600
C2098       C  0.73333836  0.65130068  0.60389664     1.04600
O2099       O  0.67481147  0.55855576  0.54846540    -0.80200
O2100       O  0.72609327  0.58669589  0.57920448    -0.67800
Ni2101     Ni  0.62879457  0.54673107  0.66997049     1.34900
C2102       C  0.73107620  0.57906870  0.60294122     0.83300
O2103       O  0.60710413  0.50615504  0.60909153    -0.80800
O2104       O  0.59789915  0.50766467  0.65501438    -0.91000
C2105       C  0.64575990  0.54187875  0.54566750     0.82900
O2106       O  0.60881309  0.56694902  0.65486616    -0.69200
O2107       O  0.72376466  0.63965792  0.57972616    -0.88500
C2108       C  0.60191595  0.57031061  0.63027657     0.83700
C2109       C  0.59189132  0.99554675  0.63010436     1.05300
H2110       H  0.66348369  0.60220072  0.59633012     0.37100
O2111       O  0.67238320  0.58901215  0.59737526    -1.11200
O2112       O  0.71658880  0.57884544  0.62503042    -0.67800
Ni2113     Ni  0.68941668  0.59459075  0.63383631     1.26300
O2114       O  0.61143840  0.56247617  0.60867890    -0.68100
O2115       O  0.72261926  0.63615157  0.62668268    -0.80400
C2116       C  0.68552714  0.59527785  0.69188203     0.83100
O2117       O  0.70341695  0.59800965  0.67168921    -0.67500
Ni2118     Ni  0.69826155  0.59876139  0.56544801     1.27400
Ni2119     Ni  0.63984277  0.54743311  0.60232111     1.26100
H2120       H  0.66391181  0.53967804  0.64173636     0.37600
O2121       O  0.58993401  0.66089237  0.31177319    -0.82300
O2122       O  0.54628991  0.62570321  0.43413647    -0.67000
O2123       O  0.55783730  0.65695591  0.35997678    -1.13600
C2124       C  0.65528945  0.73321351  0.39671860     1.04600
O2125       O  0.56124909  0.67266640  0.45002253    -0.80200
O2126       O  0.59170293  0.72609512  0.42161183    -0.67800
Ni2127     Ni  0.55112976  0.63149002  0.32824526     1.34900
C2128       C  0.58386114  0.73168768  0.39825717     0.83300
O2129       O  0.51069740  0.60611231  0.38903491    -0.80800
O2130       O  0.51174930  0.59985952  0.34254021    -0.91000
C2131       C  0.54452177  0.64347231  0.45215819     0.82900
O2132       O  0.57067582  0.61023969  0.34182719    -0.69200
O2133       O  0.64364090  0.72213728  0.42073181    -0.88500
C2134       C  0.57483266  0.60289342  0.36597854     0.83700
C2135       C  0.99817378  0.59127197  0.36673847     1.05300
H2136       H  0.60648479  0.66340034  0.40221013     0.37100
O2137       O  0.59308090  0.67208222  0.40169153    -1.11200
O2138       O  0.58272613  0.71713444  0.37602065    -0.67800
Ni2139     Ni  0.59898733  0.69069215  0.36599356     1.26300
O2140       O  0.56770670  0.61196008  0.38830021    -0.68100
O2141       O  0.64021809  0.72378248  0.37389035    -0.80400
C2142       C  0.59803991  0.68896652  0.30804265     0.83100
O2143       O  0.60267668  0.70654168  0.32883057    -0.67500
Ni2144     Ni  0.60220366  0.69653503  0.43427529     1.27400
Ni2145     Ni  0.55176161  0.63930639  0.39624579     1.26100
H2146       H  0.54403938  0.66507485  0.35833076     0.37600
O2147       O  0.91260324  0.57399759  0.68489224    -0.82300
O2148       O  0.95402625  0.58268011  0.56059813    -0.67000
O2149       O  0.94417965  0.60238666  0.63576596    -1.13600
C2150       C  0.84632943  0.58153885  0.60224779     1.04600
O2151       O  0.93840201  0.61406375  0.54528931    -0.80200
O2152       O  0.91070351  0.63860660  0.57621779    -0.67800
Ni2153     Ni  0.95032064  0.58243462  0.66648978     1.34900
C2154       C  0.91887288  0.65179449  0.59982252     0.83300
O2155       O  0.99069995  0.59912389  0.60487627    -0.80800
O2156       O  0.98860598  0.58905503  0.65079203    -0.91000
C2157       C  0.95468418  0.60119559  0.54231871     0.82900
O2158       O  0.92895030  0.54180436  0.65194181    -0.69200
O2159       O  0.85755355  0.58313765  0.57775915    -0.88500
C2160       C  0.92586570  0.53089415  0.62748399     0.83700
C2161       C  0.50258037  0.59560401  0.62682768     1.05300
H2162       H  0.89465214  0.56033124  0.59377704     0.37100
O2163       O  0.90810183  0.58242837  0.59453261    -1.11200
O2164       O  0.91945175  0.63794414  0.62171793    -0.67800
Ni2165     Ni  0.90325819  0.59520878  0.63093664     1.26300
O2166       O  0.93405986  0.54766725  0.60569203    -0.68100
O2167       O  0.86192706  0.58694512  0.62460680    -0.80400
C2168       C  0.90396516  0.59355237  0.68889740     0.83100
O2169       O  0.90061298  0.60751351  0.66848731    -0.67500
Ni2170     Ni  0.89833369  0.59809492  0.56279622     1.27400
Ni2171     Ni  0.94949366  0.59102769  0.59880208     1.26100
H2172       H  0.95822070  0.62426314  0.63794067     0.37600
O2173       O  0.57383289  0.65797837  0.18783708    -0.82300
O2174       O  0.58492527  0.62611212  0.06404920    -0.67000
O2175       O  0.60315935  0.65509924  0.13913825    -1.13600
C2176       C  0.58268679  0.73235226  0.10467383     1.04600
O2177       O  0.61676489  0.67333402  0.04869939    -0.80200
O2178       O  0.63993322  0.72585070  0.07905073    -0.67800
Ni2179     Ni  0.58260125  0.62868354  0.16990770     1.34900
C2180       C  0.65313360  0.73066153  0.10249685     0.83300
O2181       O  0.60018227  0.60552149  0.10874069    -0.80800
O2182       O  0.58951037  0.59690042  0.15467596    -0.91000
C2183       C  0.60437957  0.64413783  0.04613204     0.82900
O2184       O  0.54220373  0.60949776  0.15524959    -0.69200
O2185       O  0.58400554  0.72238728  0.08026699    -0.88500
C2186       C  0.53164326  0.60233042  0.13075810     0.83700
C2187       C  0.59609387  0.58983671  0.13086749     1.05300
H2188       H  0.56199245  0.66302415  0.09697405     0.37100
O2189       O  0.58407139  0.67163041  0.09764341    -1.11200
O2190       O  0.63936135  0.71563491  0.12443623    -0.67800
Ni2191     Ni  0.59643885  0.68914255  0.13388767     1.26300
O2192       O  0.54881651  0.61092380  0.10901945    -0.68100
O2193       O  0.58853137  0.72251777  0.12709072    -0.80400
C2194       C  0.59294499  0.68634138  0.19179623     0.83100
O2195       O  0.60801692  0.70373564  0.17148177    -0.67500
Ni2196     Ni  0.59985672  0.69704318  0.06566631     1.27400
Ni2197     Ni  0.59238574  0.63869212  0.10227083     1.26100
H2198       H  0.62496238  0.66283040  0.14139837     0.37600
O2199       O  0.66319160  0.57190191  0.81366544    -0.82300
O2200       O  0.63129547  0.58097514  0.93721788    -0.67000
O2201       O  0.66049552  0.60026844  0.86191582    -1.13600
C2202       C  0.73738330  0.57862779  0.89493900     1.04600
O2203       O  0.67866107  0.61193843  0.95220118    -0.80200
O2204       O  0.73102969  0.63552181  0.92114749    -0.67800
Ni2205     Ni  0.63421896  0.58121943  0.83107338     1.34900
C2206       C  0.73602357  0.64880673  0.89760711     0.83300
O2207       O  0.61093698  0.59737423  0.89277388    -0.80800
O2208       O  0.60337462  0.58935284  0.84648171    -0.91000
C2209       C  0.64953832  0.59959862  0.95534841     0.82900
O2210       O  0.61330324  0.54030418  0.84529090    -0.69200
O2211       O  0.72740066  0.57960838  0.91945435    -0.88500
C2212       C  0.60627478  0.52905971  0.86970415     0.83700
C2213       C  0.59608172  0.59509873  0.87055273     1.05300
H2214       H  0.66770171  0.55784546  0.90347683     0.37100
O2215       O  0.67656379  0.57997042  0.90284300    -1.11200
O2216       O  0.72097346  0.63531061  0.87584202    -0.67800
Ni2217     Ni  0.69421960  0.59272012  0.86641345     1.26300
O2218       O  0.61572620  0.54555644  0.89169070    -0.68100
O2219       O  0.72731947  0.58438214  0.87265823    -0.80400
C2220       C  0.69080672  0.59247161  0.80862868     0.83100
O2221       O  0.70917401  0.60523081  0.82872407    -0.67500
Ni2222     Ni  0.70213727  0.59523138  0.93456692     1.27400
Ni2223     Ni  0.64389680  0.58893403  0.89880385     1.26100
H2224       H  0.66861581  0.62221554  0.86000443     0.37600
O2225       O  0.58259375  0.92405043  0.18806219    -0.82300
O2226       O  0.54156469  0.91246031  0.06370844    -0.67000
O2227       O  0.55157306  0.89472969  0.13918395    -1.13600
C2228       C  0.64912450  0.91348430  0.10334094     1.04600
O2229       O  0.55644151  0.87983111  0.04945129    -0.80200
O2230       O  0.58484554  0.85645760  0.07972404    -0.67800
Ni2231     Ni  0.54489962  0.91506285  0.16990857     1.34900
C2232       C  0.57721155  0.84403916  0.10368624     0.83300
O2233       O  0.50531745  0.89773661  0.10891502    -0.80800
O2234       O  0.50633658  0.90784397  0.15484587    -0.91000
C2235       C  0.54083564  0.89322205  0.04585128     0.82900
O2236       O  0.56628745  0.95548972  0.15477435    -0.69200
O2237       O  0.63774610  0.91164901  0.07916747    -0.88500
C2238       C  0.57044782  0.96610971  0.13016425     0.83700
C2239       C  0.99333586  0.90198136  0.13084926     1.05300
H2240       H  0.60115024  0.93527102  0.09572711     0.37100
O2241       O  0.58751912  0.91322230  0.09709038    -1.11200
O2242       O  0.57635112  0.85840463  0.12539370    -0.67800
Ni2243     Ni  0.59251760  0.90156818  0.13355550     1.26300
O2244       O  0.56244549  0.94898390  0.10850948    -0.68100
O2245       O  0.63385840  0.90929184  0.12617614    -0.80400
C2246       C  0.59256034  0.90551548  0.19169922     0.83100
O2247       O  0.59544800  0.89076964  0.17133339    -0.67500
Ni2248     Ni  0.59679876  0.89640029  0.06546572     1.27400
Ni2249     Ni  0.54630278  0.90526787  0.10214452     1.26100
H2250       H  0.53753486  0.87290414  0.14167423     0.37600
O2251       O  0.91877364  0.83533975  0.80783163    -0.82300
O2252       O  0.95869587  0.87001453  0.93254774    -0.67000
O2253       O  0.94903184  0.83977924  0.85757675    -1.13600
C2254       C  0.85131026  0.76261783  0.89405610     1.04600
O2255       O  0.94359394  0.82291682  0.94757214    -0.80200
O2256       O  0.91433627  0.76993061  0.91846315    -0.67800
Ni2257     Ni  0.95526830  0.86573381  0.82652901     1.34900
C2258       C  0.92336891  0.76502445  0.89509231     0.83300
O2259       O  0.99524127  0.88960371  0.88746302    -0.80800
O2260       O  0.99270081  0.89862955  0.84197721    -0.91000
C2261       C  0.95942778  0.85204323  0.95069406     0.82900
O2262       O  0.93216073  0.88353906  0.84085265    -0.69200
O2263       O  0.86229138  0.77364557  0.91807150    -0.88500
C2264       C  0.92983454  0.89239704  0.86519804     0.83700
C2265       C  0.50628119  0.90571627  0.86549621     1.05300
H2266       H  0.89932031  0.83251196  0.90009139     0.37100
O2267       O  0.91282971  0.82394189  0.89943507    -1.11200
O2268       O  0.92517513  0.77991807  0.87311850    -0.67800
Ni2269     Ni  0.90822520  0.80563276  0.86354291     1.26300
O2270       O  0.93880355  0.88472742  0.88695072    -0.68100
O2271       O  0.86703743  0.77195238  0.87127555    -0.80400
C2272       C  0.90941117  0.80676195  0.80525375     0.83100
O2273       O  0.90568536  0.79004124  0.82635164    -0.67500
Ni2274     Ni  0.90319516  0.79910885  0.93168986     1.27400
Ni2275     Ni  0.95413116  0.85676778  0.89432134     1.26100
H2276       H  0.96323887  0.83218139  0.85530872     0.37600
O2277       O  0.83623887  0.91677214  0.19354134    -0.82300
O2278       O  0.87215952  0.95664209  0.06724516    -0.67000
O2279       O  0.84075254  0.94501932  0.14211385    -1.13600
C2280       C  0.76703373  0.84612758  0.10494354     1.04600
O2281       O  0.82504176  0.93986054  0.05186669    -0.80200
O2282       O  0.77152009  0.90738901  0.08042462    -0.67800
Ni2283     Ni  0.86747563  0.95076409  0.17228991     1.34900
C2284       C  0.76559067  0.91608155  0.10349499     0.83300
O2285       O  0.88979749  0.99295189  0.11210364    -0.80800
O2286       O  0.90189916  0.98654387  0.15536244    -0.91000
C2287       C  0.85413457  0.95669861  0.04896147     0.82900
O2288       O  0.88084505  0.92398281  0.15747146    -0.69200
O2289       O  0.77874077  0.85742241  0.08101690    -0.88500
C2290       C  0.89228821  0.92483114  0.13347151     0.83700
C2291       C  0.90642217  0.50590673  0.13013964     1.05300
H2292       H  0.83627780  0.89667757  0.09966392     0.37100
O2293       O  0.82684412  0.90942506  0.10008790    -1.11200
O2294       O  0.78067084  0.91912364  0.12562169    -0.67800
Ni2295     Ni  0.80763537  0.90362632  0.13574072     1.26300
O2296       O  0.88750103  0.93747133  0.11259098    -0.68100
O2297       O  0.77520632  0.86188746  0.12765237    -0.80400
C2298       C  0.80706000  0.90431751  0.19451145     0.83100
O2299       O  0.79102937  0.89971331  0.17280050    -0.67500
Ni2300     Ni  0.80269850  0.89890717  0.06755229     1.27400
Ni2301     Ni  0.85827402  0.95125332  0.10528652     1.26100
H2302       H  0.83257344  0.95870890  0.14489295     0.37600
O2303       O  0.92842830  0.58332632  0.80643509    -0.82300
O2304       O  0.91756979  0.53997441  0.93179473    -0.67000
O2305       O  0.90122056  0.55214256  0.85646597    -1.13600
C2306       C  0.92136762  0.64951463  0.89334603     1.04600
O2307       O  0.88634738  0.55627158  0.94689670    -0.80200
O2308       O  0.86417896  0.58610770  0.91750716    -0.67800
Ni2309     Ni  0.92359299  0.54760478  0.82613056     1.34900
C2310       C  0.85102367  0.57731301  0.89407440     0.83300
O2311       O  0.90236024  0.50482126  0.88612620    -0.80800
O2312       O  0.92016842  0.51064253  0.84199674    -0.91000
C2313       C  0.89882495  0.53977157  0.95002427     0.82900
O2314       O  0.96331816  0.57273375  0.84187454    -0.69200
O2315       O  0.92036704  0.63812638  0.91739301    -0.88500
C2316       C  0.97278544  0.57275382  0.86634145     0.83700
C2317       C  0.90776543  0.99424866  0.86814782     1.05300
H2318       H  0.94210445  0.60061143  0.89970134     0.37100
O2319       O  0.92000132  0.58733341  0.89886020    -1.11200
O2320       O  0.86482459  0.57582354  0.87217450    -0.67800
Ni2321     Ni  0.90781632  0.59279734  0.86285919     1.26300
O2322       O  0.95448600  0.56082464  0.88713338    -0.68100
O2323       O  0.91548490  0.63399230  0.87061811    -0.80400
C2324       C  0.90913263  0.59262933  0.80445255     0.83100
O2325       O  0.89587657  0.59594037  0.82581948    -0.67500
Ni2326     Ni  0.90398194  0.59689451  0.93097678     1.27400
Ni2327     Ni  0.91095686  0.54586416  0.89346014     1.26100
H2328       H  0.87956060  0.53798559  0.85339334     0.37600
C2329       C  0.84894045  0.99126281  0.01558953    -0.14800
C2330       C  0.86625944  0.97831417  0.02516732     0.07400
C2331       C  0.89414539  0.98573746  0.01147491    -0.14800
C2332       C  0.90717168  0.50748772  0.98571141    -0.14800
C2333       C  0.88878519  0.51853173  0.97427944     0.07400
C2334       C  0.85984919  0.50941284  0.98651581    -0.14800
H2335       H  0.82752031  0.98616085  0.02591670     0.11400
H2336       H  0.90785101  0.97593770  0.01853040     0.11400
H2337       H  0.92962356  0.51423881  0.97672692     0.11400
H2338       H  0.84501863  0.51733143  0.97819902     0.11400
C2339       C  0.90888139  0.92322929  0.84345013    -0.14800
C2340       C  0.91787863  0.91414829  0.86764823     0.07400
C2341       C  0.91875125  0.92881178  0.89310322    -0.14800
C2342       C  0.91311428  0.95359630  0.89382388    -0.14800
C2343       C  0.90683809  0.96425552  0.86906340     0.07400
C2344       C  0.90364837  0.94807253  0.84412756    -0.14800
H2345       H  0.90752265  0.91226436  0.82352138     0.11400
H2346       H  0.92543816  0.92229446  0.91214429     0.11400
H2347       H  0.91572146  0.96569171  0.91334916     0.11400
H2348       H  0.89843735  0.95551938  0.82479393     0.11400
C2349       C  0.92786443  0.72427912  0.86786399    -0.20800
C2350       C  0.92997009  0.73932724  0.89338171     0.07400
C2351       C  0.93385962  0.72673405  0.91802793    -0.14800
C2352       C  0.93310650  0.69853596  0.91757255    -0.14800
C2353       C  0.92822041  0.68200285  0.89246745     0.07400
C2354       C  0.92686773  0.69576721  0.86741702    -0.14800
H2355       H  0.92488315  0.73345637  0.84849252     0.11400
H2356       H  0.93590956  0.73791360  0.93798025     0.11400
H2357       H  0.93471086  0.68896248  0.93726038     0.11400
H2358       H  0.92340059  0.68380931  0.84768683     0.11400
C2359       C  0.51086556  0.85504786  0.00900977    -0.14800
C2360       C  0.51995740  0.88375966  0.02153760     0.07400
C2361       C  0.50906118  0.90245839  0.01044773    -0.14800
C2362       C  0.98927484  0.89271503  0.98735525    -0.14800
C2363       C  0.98075204  0.86415896  0.97460679     0.07400
C2364       C  0.99240404  0.84604590  0.98524255    -0.14800
H2365       H  0.51861126  0.83994640  0.01706374     0.11400
H2366       H  0.51571841  0.92471243  0.01969282     0.11400
H2367       H  0.98050771  0.90706802  0.97958125     0.11400
H2368       H  0.98646566  0.82404699  0.97578932     0.11400
C2369       C  0.95556715  0.91128094  0.10506205    -0.14800
C2370       C  0.96334114  0.90088289  0.12913631     0.07400
C2371       C  0.94448881  0.89389507  0.15303764    -0.14800
C2372       C  0.91981878  0.89943504  0.15363125    -0.14800
C2373       C  0.91369741  0.91255082  0.13045315     0.07400
C2374       C  0.93102575  0.91720555  0.10574632    -0.14800
H2375       H  0.96980257  0.91697101  0.08637334     0.11400
H2376       H  0.44952422  0.88509967  0.17201140     0.11400
H2377       H  0.90670419  0.89512373  0.17288728     0.11400
H2378       H  0.92683501  0.92713389  0.08747642     0.11400
C2379       C  0.69741727  0.92213206  0.07921787    -0.14800
C2380       C  0.68130069  0.91932727  0.10432379     0.07400
C2381       C  0.69521535  0.91930483  0.12967090    -0.14800
C2382       C  0.72374739  0.92028649  0.12970522    -0.14800
C2383       C  0.73877400  0.92112450  0.10439029     0.07400
C2384       C  0.72563181  0.92294293  0.07925606    -0.14800
H2385       H  0.68766160  0.92240167  0.05925370     0.11400
H2386       H  0.68349647  0.91722605  0.14939390     0.11400
H2387       H  0.73319418  0.91873110  0.14943097     0.11400
H2388       H  0.73659358  0.92379096  0.05936680     0.11400
C2389       C  0.77794011  0.69198737  0.86972475    -0.14800
C2390       C  0.76198680  0.68084398  0.89525317     0.07400
C2391       C  0.77371097  0.69893763  0.91933931    -0.14800
C2392       C  0.80177328  0.72654130  0.91838162    -0.14800
C2393       C  0.81905368  0.73661024  0.89336330     0.07400
C2394       C  0.80632691  0.71958846  0.86879982    -0.14800
H2395       H  0.76950032  0.67840604  0.85082375     0.11400
H2396       H  0.76183465  0.69107536  0.93925079     0.11400
H2397       H  0.81060972  0.73919214  0.93768242     0.11400
H2398       H  0.81897362  0.72670784  0.84918898     0.11400
C2399       C  0.57563803  0.98038284  0.84316408    -0.14800
C2400       C  0.58510379  0.49527909  0.87204095     0.07400
C2401       C  0.56871195  0.98241990  0.89312890    -0.14800
C2402       C  0.54497084  0.95153213  0.89270638    -0.14800
C2403       C  0.53558692  0.93533573  0.86728509     0.07400
C2404       C  0.55194689  0.94973287  0.84273375    -0.14800
H2405       H  0.59405470  0.48559375  0.82977821     0.11400
H2406       H  0.57431201  0.99492846  0.91271644     0.11400
H2407       H  0.53265513  0.94102016  0.91195083     0.11400
H2408       H  0.04479634  0.93812277  0.82248576     0.11400
C2409       C  0.78024545  0.57737290  0.86785750    -0.14800
C2410       C  0.76306839  0.57193520  0.89278641     0.07400
C2411       C  0.77279428  0.56325883  0.91675958    -0.14800
C2412       C  0.80034391  0.56268521  0.91651798    -0.14800
C2413       C  0.81877017  0.57054875  0.89226528     0.07400
C2414       C  0.80782848  0.57657219  0.86758159    -0.14800
H2415       H  0.77337529  0.58401646  0.84899579     0.11400
H2416       H  0.75994641  0.55844087  0.93622441     0.11400
H2417       H  0.80803163  0.55760988  0.93576360     0.11400
H2418       H  0.82164090  0.58283467  0.84859600     0.11400
C2419       C  0.54825611  0.58626626  0.89610558    -0.14800
C2420       C  0.56756777  0.59703108  0.87235673     0.07400
C2421       C  0.55684134  0.60451700  0.84838545    -0.14800
C2422       C  0.52657636  0.59867193  0.84720459    -0.14800
C2423       C  0.00639517  0.58547667  0.87014026     0.07400
C2424       C  0.51774062  0.58017736  0.89486911    -0.14800
H2425       H  0.55590026  0.58024726  0.91486130     0.11400
H2426       H  0.57132964  0.61320907  0.82987549     0.11400
H2427       H  0.51868128  0.60319709  0.82781689     0.11400
H2428       H  0.00301408  0.57070929  0.91316103     0.11400
C2429       C  0.98497093  0.56649209  0.10376983    -0.14800
C2430       C  0.49786616  0.58192709  0.12810133     0.07400
C2431       C  0.97905122  0.57705352  0.15218281    -0.14800
C2432       C  0.94827100  0.55365146  0.15190040    -0.14800
C2433       C  0.93574604  0.53553990  0.12793408     0.07400
C2434       C  0.95393125  0.54307871  0.10344318    -0.14800
H2435       H  0.49874105  0.57018764  0.08455003     0.11400
H2436       H  0.98827258  0.58955201  0.17149094     0.11400
H2437       H  0.93473466  0.54856919  0.17098670     0.11400
H2438       H  0.94315787  0.03105224  0.08648150     0.11400
C2439       C  0.69745090  0.77148957  0.12989926    -0.14800
C2440       C  0.68543873  0.75639132  0.10435133     0.07400
C2441       C  0.70296332  0.76888465  0.07984746    -0.14800
C2442       C  0.73061259  0.79697921  0.08049406    -0.14800
C2443       C  0.74138061  0.81354219  0.10564168     0.07400
C2444       C  0.72510925  0.79988402  0.13052849    -0.14800
H2445       H  0.68447476  0.76243785  0.14915422     0.11400
H2446       H  0.69454502  0.75768899  0.05986493     0.11400
H2447       H  0.74261973  0.80649534  0.06090736     0.11400
H2448       H  0.73282219  0.81186974  0.15027556     0.11400
C2449       C  0.56319464  0.79295859  0.08264385    -0.14800
C2450       C  0.57140207  0.81208270  0.10630645     0.07400
C2451       C  0.57911667  0.80239311  0.13088344    -0.14800
C2452       C  0.58107509  0.77539458  0.13100181    -0.14800
C2453       C  0.57522440  0.75757212  0.10656426     0.07400
C2454       C  0.56497606  0.76601093  0.08279358    -0.14800
H2455       H  0.55692296  0.79968605  0.06347404     0.11400
H2456       H  0.58579344  0.81679135  0.14938889     0.11400
H2457       H  0.58890870  0.76951278  0.14970953     0.11400
H2458       H  0.55975239  0.75259123  0.06374667     0.11400
C2459       C  0.58807830  0.54305698  0.10430180    -0.14800
C2460       C  0.59685411  0.56071807  0.12896945     0.07400
C2461       C  0.60169558  0.54809177  0.15311903    -0.14800
C2462       C  0.59558647  0.51769353  0.15327383    -0.14800
C2463       C  0.58403849  0.99994606  0.12729694     0.07400
C2464       C  0.58161536  0.51237243  0.10451857    -0.14800
H2465       H  0.58406147  0.55218828  0.08538838     0.11400
H2466       H  0.60873508  0.56124063  0.17236048     0.11400
H2467       H  0.59823294  0.50836148  0.17269558     0.11400
H2468       H  0.57024874  0.99898290  0.08443639     0.11400
C2469       C  0.60662698  0.59218392  0.98861318    -0.14800
C2470       C  0.63745769  0.60960040  0.97930672     0.07400
C2471       C  0.65702667  0.63781278  0.99258914    -0.14800
C2472       C  0.64597202  0.64883310  0.01402006    -0.14800
C2473       C  0.61523264  0.63164156  0.02329641     0.07400
C2474       C  0.59572458  0.60291085  0.01074985    -0.14800
H2475       H  0.59103511  0.57032340  0.97883631     0.11400
H2476       H  0.68086660  0.65186137  0.98596727     0.11400
H2477       H  0.66165078  0.67083824  0.02354733     0.11400
H2478       H  0.57194696  0.58914455  0.01763060     0.11400
C2479       C  0.87473225  0.57618964  0.73348155    -0.14800
C2480       C  0.89885317  0.59970797  0.71788892     0.07400
C2481       C  0.92329263  0.62438442  0.73188626    -0.14800
C2482       C  0.92522804  0.62387713  0.76098858    -0.14800
C2483       C  0.90233722  0.59906904  0.77638618     0.07400
C2484       C  0.87630102  0.57606207  0.76263063    -0.14800
H2485       H  0.85616814  0.55652189  0.72300530     0.11400
H2486       H  0.94255188  0.64223419  0.72015591     0.11400
H2487       H  0.94578216  0.64144191  0.77121326     0.11400
H2488       H  0.85878540  0.55636340  0.77413501     0.11400
C2489       C  0.00676632  0.64832805  0.48279957    -0.14800
C2490       C  0.52071618  0.63096816  0.47439470     0.07400
C2491       C  0.51244301  0.60315552  0.48816085    -0.14800
C2492       C  0.49075095  0.59294356  0.51018079    -0.14800
C2493       C  0.97655032  0.61039869  0.51839325     0.07400
C2494       C  0.98479657  0.63796601  0.50420667    -0.14800
H2495       H  0.01288358  0.66991390  0.47256122     0.11400
H2496       H  0.52333065  0.58986285  0.48241512     0.11400
H2497       H  0.48522086  0.57185669  0.52103489     0.11400
H2498       H  0.97481007  0.65204811  0.51009513     0.11400
C2499       C  0.62657138  0.71102474  0.26316420    -0.14800
C2500       C  0.59936794  0.69933714  0.27923951     0.07400
C2501       C  0.57124172  0.68952913  0.26591500    -0.14800
C2502       C  0.56977266  0.68871292  0.23686388    -0.14800
C2503       C  0.59647629  0.69794717  0.22061592     0.07400
C2504       C  0.62516407  0.71064630  0.23386479    -0.14800
H2505       H  0.64836243  0.71789175  0.27311814     0.11400
H2506       H  0.54996086  0.67976217  0.27798160     0.11400
H2507       H  0.54738675  0.67837521  0.22708507     0.11400
H2508       H  0.64592512  0.71718607  0.22170254     0.11400
C2509       C  0.68308395  0.61712701  0.73768938    -0.14800
C2510       C  0.69658231  0.60394566  0.72081699     0.07400
C2511       C  0.71434468  0.59287026  0.73347239    -0.14800
C2512       C  0.71558157  0.59192674  0.76279461    -0.14800
C2513       C  0.69942861  0.60246407  0.77946917     0.07400
C2514       C  0.68450499  0.61638824  0.76668147    -0.14800
H2515       H  0.66919829  0.62571027  0.72847545     0.11400
H2516       H  0.72458561  0.58219145  0.72089912     0.11400
H2517       H  0.72675739  0.58059058  0.77231505     0.11400
H2518       H  0.67161203  0.62430329  0.77918715     0.11400
C2519       C  0.77305256  0.57761925  0.62963161    -0.14800
C2520       C  0.75650739  0.57227393  0.60475946     0.07400
C2521       C  0.76753750  0.56521517  0.58033057    -0.14800
C2522       C  0.79581205  0.56619469  0.58010288    -0.14800
C2523       C  0.81385216  0.57438697  0.60428609     0.07400
C2524       C  0.80157134  0.57873586  0.62938874    -0.14800
H2525       H  0.76509337  0.58314725  0.64878356     0.11400
H2526       H  0.75509857  0.56059592  0.56092441     0.11400
H2527       H  0.80424122  0.56211457  0.56051067     0.11400
H2528       H  0.81477403  0.58483627  0.64843727     0.11400
C2529       C  0.57219201  0.59324050  0.65125266    -0.14800
C2530       C  0.58075040  0.58275912  0.62733056     0.07400
C2531       C  0.56666728  0.58171170  0.60177835    -0.14800
C2532       C  0.54268829  0.58853331  0.60082901    -0.14800
C2533       C  0.53249816  0.59638981  0.62543573     0.07400
C2534       C  0.54843845  0.59993204  0.65031251    -0.14800
H2535       H  0.58282199  0.59486655  0.67121026     0.11400
H2536       H  0.57292650  0.57396203  0.58292258     0.11400
H2537       H  0.03062733  0.58554927  0.58149433     0.11400
H2538       H  0.54141785  0.60628251  0.66956832     0.11400
C2539       C  0.59536321  0.98909315  0.48897697    -0.14800
C2540       C  0.61545858  0.98133489  0.47506680     0.07400
C2541       C  0.64638514  0.99569057  0.48314433    -0.14800
C2542       C  0.65697371  0.01665653  0.50515166    -0.14800
C2543       C  0.63391955  0.52039921  0.52154889     0.07400
C2544       C  0.60309273  0.50681548  0.51281219    -0.14800
H2545       H  0.57142284  0.97841485  0.48294113     0.11400
H2546       H  0.66248508  0.99053197  0.47246306     0.11400
H2547       H  0.68095720  0.02685591  0.51091318     0.11400
H2548       H  0.58715997  0.51222407  0.52343675     0.11400
C2549       C  0.59518476  0.54449566  0.39344513    -0.14800
C2550       C  0.59898092  0.53210101  0.36822757     0.07400
C2551       C  0.59971443  0.54656458  0.34300881    -0.14800
C2552       C  0.59391490  0.57094145  0.34267147    -0.14800
C2553       C  0.58711547  0.58151244  0.36755375     0.07400
C2554       C  0.58921966  0.56903850  0.39310609    -0.14800
H2555       H  0.58803962  0.02947767  0.41233993     0.11400
H2556       H  0.60306941  0.53793444  0.32323497     0.11400
H2557       H  0.59309441  0.58032567  0.32260571     0.11400
H2558       H  0.58452921  0.57699781  0.41265892     0.11400
C2559       C  0.57366418  0.79828358  0.42136915    -0.14800
C2560       C  0.57923525  0.81495167  0.39637414     0.07400
C2561       C  0.58180860  0.80154042  0.37128811    -0.14800
C2562       C  0.58102879  0.77315843  0.37153672    -0.14800
C2563       C  0.57781015  0.75774675  0.39688522     0.07400
C2564       C  0.57303719  0.77010775  0.42162339    -0.14800
H2565       H  0.57117582  0.80764339  0.44106053     0.11400
H2566       H  0.58599672  0.81366912  0.35165052     0.11400
H2567       H  0.58485620  0.76427078  0.35212376     0.11400
H2568       H  0.57020270  0.75867541  0.44146210     0.11400
C2569       C  0.58340665  0.87288642  0.26370633    -0.14800
C2570       C  0.60165551  0.89995695  0.27900361     0.07400
C2571       C  0.62116427  0.92742254  0.26468566    -0.14800
C2572       C  0.62053530  0.92851141  0.23558241    -0.14800
C2573       C  0.60075577  0.90200083  0.22029680     0.07400
C2574       C  0.58326154  0.87382913  0.23441169    -0.14800
H2575       H  0.56747932  0.85171139  0.27441924     0.11400
H2576       H  0.63473241  0.94870404  0.27615599     0.11400
H2577       H  0.63371706  0.95056686  0.22514197     0.11400
H2578       H  0.56723894  0.85331351  0.22303215     0.11400
C2579       C  0.87490463  0.78959970  0.73449323    -0.14800
C2580       C  0.90101246  0.79598359  0.71833452     0.07400
C2581       C  0.92691087  0.79821506  0.73143274    -0.14800
C2582       C  0.92779177  0.79700826  0.76054627    -0.14800
C2583       C  0.90297700  0.79403730  0.77686268     0.07400
C2584       C  0.87597318  0.78888100  0.76367506    -0.14800
H2585       H  0.85504959  0.78866979  0.72478849     0.11400
H2586       H  0.94752408  0.80390713  0.71934633     0.11400
H2587       H  0.94913351  0.80189405  0.77036296     0.11400
H2588       H  0.85697491  0.78747413  0.77593176     0.11400
C2589       C  0.77547992  0.69695969  0.62958541    -0.14800
C2590       C  0.75938704  0.68365493  0.60478501     0.07400
C2591       C  0.77057403  0.70036858  0.57972505    -0.14800
C2592       C  0.79830268  0.72833694  0.57899649    -0.14800
C2593       C  0.81557826  0.74060025  0.60333087     0.07400
C2594       C  0.80330625  0.72525382  0.62887169    -0.14800
H2595       H  0.76748439  0.68478949  0.64925588     0.11400
H2596       H  0.75869281  0.69113895  0.56022782     0.11400
H2597       H  0.80690469  0.73968618  0.55904147     0.11400
H2598       H  0.81611418  0.73410566  0.64800961     0.11400
C2599       C  0.54583708  0.95625419  0.60330634    -0.14800
C2600       C  0.56280862  0.96551413  0.62818899     0.07400
C2601       C  0.54946482  0.94822072  0.65254226    -0.14800
C2602       C  0.51911456  0.92386203  0.65265319    -0.14800
C2603       C  0.00102280  0.91623122  0.62845101     0.07400
C2604       C  0.51519064  0.93182929  0.60344671    -0.14800
H2605       H  0.55547755  0.96917679  0.58419506     0.11400
H2606       H  0.56198124  0.95451746  0.67199028     0.11400
H2607       H  0.00946410  0.91126911  0.67195195     0.11400
H2608       H  0.50204839  0.92639746  0.58440026     0.11400
C2609       C  0.93273707  0.72997583  0.57833305    -0.14800
C2610       C  0.92526720  0.74026563  0.60306616     0.07400
C2611       C  0.92087404  0.72356653  0.62784711    -0.14800
C2612       C  0.92131757  0.69579691  0.62732091    -0.14800
C2613       C  0.92596273  0.68420161  0.60198580     0.07400
C2614       C  0.93295118  0.70223250  0.57778260    -0.14800
H2615       H  0.93676956  0.74247891  0.55893263     0.11400
H2616       H  0.91524299  0.73092100  0.64728308     0.11400
H2617       H  0.91585089  0.68237487  0.64633008     0.11400
H2618       H  0.93702190  0.69410323  0.55803315     0.11400
C2619       C  0.89885948  0.94994066  0.65231005    -0.14800
C2620       C  0.90321560  0.93695226  0.62782371     0.07400
C2621       C  0.91247001  0.95462807  0.60318947    -0.14800
C2622       C  0.91966149  0.98556847  0.60371594    -0.14800
C2623       C  0.91376432  0.49728318  0.62499463     0.07400
C2624       C  0.90583230  0.98059351  0.65281165    -0.14800
H2625       H  0.89150297  0.93681455  0.67154797     0.11400
H2626       H  0.91619544  0.94524178  0.58403380     0.11400
H2627       H  0.92844985  0.99921456  0.58486198     0.11400
H2628       H  0.89728988  0.48772736  0.66797228     0.11400
C2629       C  0.79254910  0.91747019  0.26773132    -0.14800
C2630       C  0.79638838  0.89472844  0.28089729     0.07400
C2631       C  0.79495331  0.87042932  0.26494184    -0.14800
C2632       C  0.79323942  0.87075180  0.23583440    -0.14800
C2633       C  0.79285301  0.89533706  0.22239007     0.07400
C2634       C  0.79060215  0.91766309  0.23858189    -0.14800
H2635       H  0.79439349  0.93680267  0.27963872     0.11400
H2636       H  0.79862674  0.85309303  0.27470101     0.11400
H2637       H  0.79592808  0.85385204  0.22373680     0.11400
H2638       H  0.79127410  0.93734106  0.22859397     0.11400
C2639       C  0.85106286  0.85809712  0.48548378    -0.14800
C2640       C  0.86773080  0.88926293  0.47768663     0.07400
C2641       C  0.89540508  0.90908967  0.49142990    -0.14800
C2642       C  0.90557162  0.89791976  0.51332409    -0.14800
C2643       C  0.88864327  0.86659870  0.52112565     0.07400
C2644       C  0.86152537  0.84684794  0.50664530    -0.14800
H2645       H  0.82987391  0.84223140  0.47498966     0.11400
H2646       H  0.90868032  0.93322931  0.48569856     0.11400
H2647       H  0.92656651  0.91368249  0.52410548     0.11400
H2648       H  0.84786085  0.82264477  0.51206902     0.11400
C2649       C  0.93193123  0.51528438  0.39368025    -0.14800
C2650       C  0.91687439  0.00112000  0.36792748     0.07400
C2651       C  0.92674394  0.01797291  0.34284364    -0.14800
C2652       C  0.95260758  0.54781700  0.34340850    -0.14800
C2653       C  0.96809523  0.56196345  0.36817820     0.07400
C2654       C  0.95674783  0.54578868  0.39350984    -0.14800
H2655       H  0.92480391  0.50283818  0.41326999     0.11400
H2656       H  0.91661037  0.00725626  0.32309060     0.11400
H2657       H  0.96050924  0.55958729  0.32354438     0.11400
H2658       H  0.96819079  0.55599575  0.41297933     0.11400
C2659       C  0.73152928  0.79881342  0.42169021    -0.14800
C2660       C  0.74322938  0.81685005  0.39748937     0.07400
C2661       C  0.72802453  0.80488033  0.37203440    -0.14800
C2662       C  0.70031400  0.77660580  0.37128834    -0.14800
C2663       C  0.68741295  0.75965833  0.39595730     0.07400
C2664       C  0.70407521  0.77051025  0.42091197    -0.14800
H2665       H  0.74289660  0.80719937  0.44153939     0.11400
H2666       H  0.73648299  0.81823795  0.35299033     0.11400
H2667       H  0.68819841  0.76891083  0.35169671     0.11400
H2668       H  0.69510707  0.75794050  0.44028385     0.11400
C2669       C  0.95074531  0.89885395  0.34964100    -0.14800
C2670       C  0.93829638  0.90350408  0.37435938     0.07400
C2671       C  0.95567753  0.91133469  0.39894188    -0.14800
C2672       C  0.98614449  0.91708219  0.39803704    -0.14800
C2673       C  0.49977685  0.91547481  0.37238158     0.07400
C2674       C  0.98079271  0.90439054  0.34875589    -0.14800
H2675       H  0.93769394  0.89238153  0.33048136     0.11400
H2676       H  0.94653631  0.91506602  0.41827914     0.11400
H2677       H  0.50050105  0.92628183  0.41643486     0.11400
H2678       H  0.98995732  0.90191135  0.32890437     0.11400
C2679       C  0.70548424  0.93697672  0.41821552    -0.14800
C2680       C  0.68734782  0.92859194  0.39412302     0.07400
C2681       C  0.69898925  0.92298931  0.36926081    -0.14800
C2682       C  0.72675414  0.92261284  0.36931009    -0.14800
C2683       C  0.74329578  0.92794078  0.39420899     0.07400
C2684       C  0.73315633  0.93669609  0.41825452    -0.14800
H2685       H  0.69735823  0.94193076  0.43757231     0.11400
H2686       H  0.68553217  0.91653761  0.35034896     0.11400
H2687       H  0.73409169  0.91606741  0.35035941     0.11400
H2688       H  0.74565203  0.94157541  0.43764354     0.11400
loop_ 
_geom_bond_atom_site_label_1 
_geom_bond_atom_site_label_2 
_geom_bond_distance 
_geom_bond_site_symmetry_2 
_ccdc_geom_bond_type 
O1           Ni7   1.926       .  S
O1           C22   1.269       .  A
O2          Ni25   1.919       .  S
O2           C11   1.270       .  A
O3           Ni7   1.903       .  S
O3          Ni25   1.918       .  S
O3          Ni19   1.917       .  S
O3           H26   0.966       .  S
C4           O21   1.281       .  A
C4           O13   1.280       .  A
C4          C667   1.484       .  S
O5          Ni24   1.936       .  S
O5           C11   1.274       .  A
O6          Ni24   1.909       .  S
O6            C8   1.269       .  A
Ni7          O10   1.924       .  S
Ni7          O12   1.900       .  S
C8           O18   1.270       .  A
C8          C644   1.479       .  S
O9          Ni25   1.907       .  S
O9           C15   1.271       .  A
O10          C15   1.275       .  A
C11         C624   1.489       .  S
O12          C14   1.270       .  A
O13         Ni24   1.920       .  S
C14          O20   1.279       .  A
C14         C634   1.490       .  S
C15         C654   1.475       .  S
H16          O17   0.966       .  S
O17         Ni25   1.903       .  S
O17         Ni19   1.908       .  S
O17         Ni24   1.899       .  S
O18         Ni19   1.921       .  S
Ni19         O23   1.924       .  S
Ni19         O21   1.929       .  S
O20         Ni25   1.950       .  S
C22          O23   1.269       .  A
C22         C614   1.473       .  S
O27         Ni33   1.921       .  S
O27          C48   1.270       .  A
O28         Ni51   1.919       .  S
O28          C37   1.269       .  A
O29         Ni33   1.907       .  S
O29         Ni51   1.921       .  S
O29         Ni45   1.927       .  S
O29          H52   0.967       .  S
C30          O47   1.282       .  A
C30          O39   1.278       .  A
C30         C594   1.488       .  S
O31         Ni50   1.935       .  S
O31          C37   1.273       .  A
O32         Ni50   1.904       .  S
O32          C34   1.269       .  A
Ni33         O36   1.924       .  S
Ni33         O38   1.900       .  S
C34          O44   1.269       .  A
C34         C577   1.478       .  S
O35         Ni51   1.904       .  S
O35          C41   1.267       .  A
O36          C41   1.273       .  A
C37         C627   1.488       .  S
O38          C40   1.271       .  A
O39         Ni50   1.917       .  S
C40          O46   1.279       .  A
C40         C587   1.485       .  S
C41         C604   1.472       .  S
H42          O43   0.966       .  S
O43         Ni51   1.901       .  S
O43         Ni45   1.909       .  S
O43         Ni50   1.900       .  S
O44         Ni45   1.920       .  S
Ni45         O49   1.922       .  S
Ni45         O47   1.935       .  S
O46         Ni51   1.949       .  S
C48          O49   1.270       .  A
C48         C564   1.473       .  S
O53         Ni59   1.921       .  S
O53          C74   1.267       .  A
O54         Ni77   1.915       .  S
O54          C63   1.268       .  A
O55         Ni59   1.897       .  S
O55         Ni77   1.909       .  S
O55         Ni71   1.911       .  S
O55          H78   0.966       .  S
C56          O73   1.279       .  A
C56          O65   1.279       .  A
C56         C544   1.484       .  S
O57         Ni76   1.930       .  S
O57          C63   1.272       .  A
O58         Ni76   1.905       .  S
O58          C60   1.269       .  A
Ni59         O62   1.920       .  S
Ni59         O64   1.896       .  S
C60          O70   1.270       .  A
C60         C664   1.479       .  S
O61         Ni77   1.914       .  S
O61         C739   1.275       .  A
O62         C739   1.278       .  A
C63         C524   1.479       .  S
O64          C66   1.267       .  A
O65         Ni76   1.919       .  S
C66          O72   1.274       .  A
C66         C657   1.482   1_455  S
C67         O733   1.276   1_545  A
C67         O734   1.279   1_545  A
C67         C534   1.480       .  S
H68          O69   0.966       .  S
O69         Ni77   1.910       .  S
O69         Ni71   1.909       .  S
O69         Ni76   1.896       .  S
O70         Ni71   1.923       .  S
Ni71         O75   1.920       .  S
Ni71         O73   1.926       .  S
O72         Ni77   1.938       .  S
C74          O75   1.267       .  A
C74         C554   1.468       .  S
O79         Ni85   1.924       .  S
O79         C100   1.268       .  A
O80        Ni103   1.917       .  S
O80          C89   1.270       .  A
O81         Ni85   1.898       .  S
O81        Ni103   1.912       .  S
O81         Ni97   1.916       .  S
O81         H104   0.966       .  S
C82          O99   1.280       .  A
C82          O91   1.278       .  A
C82         C574   1.481       .  S
O83        Ni102   1.924       .  S
O83          C89   1.273       .  A
O84        Ni102   1.906       .  S
O84          C86   1.269       .  A
Ni85         O88   1.923       .  S
Ni85         O90   1.896       .  S
C86          O96   1.271       .  A
C86         C504   1.480       .  S
O87        Ni103   1.920       .  S
O87         C765   1.276   1_545  A
O88         C765   1.278   1_545  A
C89         C527   1.483       .  S
O90          C92   1.267       .  A
O91        Ni102   1.915       .  S
C92          O98   1.273       .  A
C92         C514   1.480       .  S
C93         O759   1.276       .  A
C93         O760   1.278       .  A
C93         C584   1.481       .  S
H94          O95   0.966       .  S
O95        Ni103   1.907       .  S
O95         Ni97   1.905       .  S
O95        Ni102   1.889       .  S
O96         Ni97   1.927       .  S
Ni97        O101   1.922       .  S
Ni97         O99   1.927       .  S
O98        Ni103   1.935       .  S
C100        O101   1.268       .  A
C100        C494   1.474       .  S
O105       Ni111   1.922       .  S
O105        C126   1.267       .  A
O106       Ni129   1.917       .  S
O106        C115   1.271       .  A
O107       Ni111   1.898       .  S
O107       Ni129   1.908       .  S
O107       Ni123   1.917       .  S
O107        H130   0.966       .  S
C108        O125   1.281       .  A
C108        O117   1.280       .  A
C108        C647   1.484       .  S
O109       Ni128   1.934       .  S
O109        C115   1.274       .  A
O110       Ni128   1.906       .  S
O110        C112   1.269       .  A
Ni111       O114   1.926       .  S
Ni111       O116   1.895       .  S
C112        O122   1.270       .  A
C112        C547   1.479       .  S
O113       Ni129   1.916       .  S
O113       C1463   1.276   1_455  A
O114       C1463   1.278   1_455  A
C115        C474   1.485       .  S
O116        C118   1.268       .  A
O117       Ni128   1.921       .  S
C118        O124   1.276       .  A
C118        C537   1.484       .  S
C119       O1457   1.276       .  A
C119       O1458   1.279       .  A
C119        C637   1.484       .  S
H120        O121   0.966       .  S
O121       Ni129   1.908       .  S
O121       Ni123   1.903       .  S
O121       Ni128   1.892       .  S
O122       Ni123   1.923       .  S
Ni123       O127   1.921       .  S
Ni123       O125   1.928       .  S
O124       Ni129   1.942       .  S
C126        O127   1.268       .  A
C126        C484   1.468       .  S
O131       Ni137   1.920       .  S
O131        C152   1.267       .  A
O132       Ni155   1.914       .  S
O132        C141   1.269       .  A
O133       Ni137   1.899       .  S
O133       Ni155   1.910       .  S
O133       Ni149   1.917       .  S
O133        H156   0.966       .  S
C134        O151   1.281       .  A
C134        O143   1.280       .  A
C134        C507   1.485       .  S
O135       Ni154   1.936       .  S
O135        C141   1.275       .  A
O136       Ni154   1.910       .  S
O136        C138   1.270       .  A
Ni137       O140   1.922       .  S
Ni137       O142   1.899       .  S
C138        O148   1.271       .  A
C138        C597   1.483       .  S
O139       Ni155   1.915       .  S
O139       C1489   1.275       .  A
O140       C1489   1.277       .  A
C141        C477   1.484       .  S
O142        C144   1.268       .  A
O143       Ni154   1.921       .  S
C144        O150   1.273       .  A
C144        C607   1.484   1_545  S
C145       O1483   1.275   1_455  A
C145       O1484   1.277   1_455  A
C145        C517   1.477       .  S
H146        O147   0.965       .  S
O147       Ni155   1.908       .  S
O147       Ni149   1.906       .  S
O147       Ni154   1.893       .  S
O148       Ni149   1.925       .  S
Ni149       O153   1.924       .  S
Ni149       O151   1.930       .  S
O150       Ni155   1.937       .  S
C152        O153   1.269       .  A
C152        C464   1.469       .  S
O157       Ni163   1.924       .  S
O157        C178   1.268       .  A
O158       Ni181   1.911       .  S
O158        C167   1.268       .  A
O159       Ni163   1.896       .  S
O159       Ni181   1.908       .  S
O159       Ni175   1.916       .  S
O159        H182   0.966       .  S
C160        O177   1.282       .  A
C160        O169   1.280       .  A
C160        C437   1.484       .  S
O161       Ni180   1.931       .  S
O161        C167   1.274       .  A
O162       Ni180   1.906       .  S
O162        C164   1.269       .  A
Ni163       O166   1.925       .  S
Ni163       O168   1.898       .  S
C164        O174   1.270       .  A
C164        C424   1.481       .  S
O165       Ni181   1.912       .  S
O165        C171   1.274       .  A
O166        C171   1.278       .  A
C167        C457   1.479       .  S
O168        C170   1.268       .  A
O169       Ni180   1.918       .  S
C170        O176   1.275       .  A
C170        C414   1.487   1_455  S
C171        C444   1.478       .  S
H172        O173   0.966       .  S
O173       Ni181   1.904       .  S
O173       Ni175   1.903       .  S
O173       Ni180   1.891       .  S
O174       Ni175   1.923       .  S
Ni175       O179   1.923       .  S
Ni175       O177   1.932       .  S
O176       Ni181   1.940       .  S
C178        O179   1.269       .  A
C178        C487   1.470       .  S
O183       Ni189   1.911       .  S
O183        C204   1.265       .  A
O184       Ni207   1.910       .  S
O184        C193   1.268       .  A
O185       Ni189   1.898       .  S
O185       Ni207   1.906       .  S
O185       Ni201   1.927       .  S
O185        H208   0.966       .  S
C186        O203   1.283       .  A
C186        O195   1.279       .  A
C186        C394   1.485       .  S
O187       Ni206   1.929       .  S
O187        C193   1.274       .  A
O188       Ni206   1.910       .  S
O188        C190   1.270       .  A
Ni189       O192   1.923       .  S
Ni189       O194   1.897       .  S
C190        O200   1.270       .  A
C190        C374   1.484       .  S
O191       Ni207   1.918       .  S
O191        C197   1.275       .  A
O192        C197   1.278       .  A
C193        C454   1.481       .  S
O194        C196   1.268       .  A
O195       Ni206   1.914       .  S
C196        O202   1.273       .  A
C196        C384   1.481   1_545  S
C197        C404   1.479       .  S
H198        O199   0.966       .  S
O199       Ni207   1.908       .  S
O199       Ni201   1.905       .  S
O199       Ni206   1.890       .  S
O200       Ni201   1.923       .  S
Ni201       O205   1.928       .  S
Ni201       O203   1.937       .  S
O202       Ni207   1.933       .  S
C204        O205   1.268       .  A
C204        C497   1.468       .  S
O209       Ni215   1.926       .  S
O209        C230   1.269       .  A
O210       Ni233   1.914       .  S
O210        C219   1.269       .  A
O211       Ni215   1.903       .  S
O211       Ni233   1.917       .  S
O211       Ni227   1.919       .  S
O211        H234   0.965       .  S
C212        O229   1.282       .  A
C212        O221   1.280       .  A
C212        C364   1.487       .  S
O213       Ni232   1.931       .  S
O213        C219   1.274       .  A
O214       Ni232   1.908       .  S
O214        C216   1.269       .  A
Ni215       O218   1.926       .  S
Ni215       O220   1.897       .  S
C216        O226   1.270       .  A
C216        C434   1.479       .  S
O217       Ni233   1.914       .  S
O217       C1567   1.273   1_455  A
O218       C1567   1.276   1_455  A
C219        C344   1.482       .  S
O220        C222   1.268       .  A
O221       Ni232   1.920       .  S
C222        O228   1.276       .  A
C222        C447   1.484       .  S
C223       O1561   1.272       .  A
C223       O1562   1.275       .  A
C223        C354   1.480       .  S
H224        O225   0.966       .  S
O225       Ni233   1.905       .  S
O225       Ni227   1.901       .  S
O225       Ni232   1.893       .  S
O226       Ni227   1.923       .  S
Ni227       O231   1.916       .  S
Ni227       O229   1.933       .  S
O228       Ni233   1.943       .  S
C230        O231   1.268       .  A
C230        C557   1.468       .  S
O235       Ni241   1.922       .  S
O235        C256   1.269       .  A
O236       Ni259   1.916       .  S
O236        C245   1.269       .  A
O237       Ni241   1.905       .  S
O237       Ni259   1.917       .  S
O237       Ni253   1.926       .  S
O237        H260   0.965       .  S
C238        O255   1.284       .  A
C238        O247   1.278       .  A
C238        C377   1.488       .  S
O239       Ni258   1.928       .  S
O239        C245   1.272       .  A
O240       Ni258   1.907       .  S
O240        C242   1.269       .  A
Ni241       O244   1.926       .  S
Ni241       O246   1.897       .  S
C242        O252   1.271       .  A
C242        C334   1.483       .  S
O243       Ni259   1.911       .  S
O243       C1593   1.271       .  A
O244       C1593   1.275       .  A
C245        C347   1.482       .  S
O246        C248   1.269       .  A
O247       Ni258   1.913       .  S
C248        O254   1.276       .  A
C248        C324   1.482       .  S
C249       O1587   1.272   1_455  A
C249       O1588   1.275   1_455  A
C249        C387   1.479       .  S
H250        O251   0.966       .  S
O251       Ni259   1.904       .  S
O251       Ni253   1.903       .  S
O251       Ni258   1.893       .  S
O252       Ni253   1.926       .  S
Ni253       O257   1.925       .  S
Ni253       O255   1.941       .  S
O254       Ni259   1.939       .  S
C256        O257   1.271       .  A
C256        C567   1.471       .  S
O261       Ni267   1.924       .  S
O261        C282   1.268       .  A
O262       Ni285   1.918       .  S
O262        C271   1.269       .  A
O263       Ni267   1.905       .  S
O263       Ni285   1.919       .  S
O263       Ni279   1.919       .  S
O263        H286   0.966       .  S
C264        O281   1.282       .  A
C264        O273   1.279       .  A
C264        C427   1.484       .  S
O265       Ni284   1.929       .  S
O265        C271   1.273       .  A
O266       Ni284   1.906       .  S
O266        C268   1.269       .  A
Ni267       O270   1.923       .  S
Ni267       O272   1.898       .  S
C268        O278   1.272       .  A
C268        C367   1.484       .  S
O269       Ni285   1.909       .  S
O269        C947   1.272       .  A
O270        C947   1.276       .  A
C271        C314   1.483       .  S
O272        C274   1.269       .  A
O273       Ni284   1.915       .  S
C274        O280   1.275       .  A
C274        C357   1.486       .  S
C275        O941   1.272   1_545  A
C275        O942   1.276   1_545  A
C275        C417   1.482       .  S
H276        O277   0.966       .  S
O277       Ni285   1.902       .  S
O277       Ni279   1.908       .  S
O277       Ni284   1.894       .  S
O278       Ni279   1.929       .  S
Ni279       O283   1.926       .  S
Ni279       O281   1.931       .  S
O280       Ni285   1.941       .  S
C282        O283   1.270       .  A
C282        C617   1.474       .  S
O287       Ni293   1.929       .  S
O287        C308   1.270       .  A
O288       Ni311   1.919       .  S
O288        C297   1.270       .  A
O289       Ni293   1.901       .  S
O289       Ni311   1.915       .  S
O289       Ni305   1.916       .  S
O289        H312   0.966       .  S
C290        O307   1.282       .  A
C290        O299   1.278       .  A
C290        C337   1.486       .  S
O291       Ni310   1.924       .  S
O291        C297   1.272       .  A
O292       Ni310   1.907       .  S
O292        C294   1.269       .  A
Ni293       O296   1.930       .  S
Ni293       O298   1.900       .  S
C294        O304   1.270       .  A
C294        C397   1.479       .  S
O295       Ni311   1.914       .  S
O295        C973   1.274   1_545  A
O296        C973   1.278   1_545  A
C297        C317   1.484       .  S
O298        C300   1.268       .  A
O299       Ni310   1.914       .  S
C300        O306   1.275       .  A
C300        C407   1.484       .  S
C301        O967   1.273       .  A
C301        O968   1.278       .  A
C301        C327   1.475       .  S
H302        O303   0.966       .  S
O303       Ni311   1.908       .  S
O303       Ni305   1.905       .  S
O303       Ni310   1.892       .  S
O304       Ni305   1.923       .  S
Ni305       O309   1.919       .  S
Ni305       O307   1.936       .  S
O306       Ni311   1.941       .  S
C308        O309   1.268       .  A
C308        C467   1.473       .  S
C313        C314   1.403       .  A
C313        C990   1.391   1_554  A
C313        H319   1.083       .  S
C314        C315   1.408       .  A
C315        C988   1.409   1_554  A
C315        H320   1.083       .  S
C316        C317   1.408       .  A
C316        C987   1.407   1_546  A
C316        H321   1.083       .  S
C317        C318   1.406       .  A
C318        C985   1.391   1_546  A
C318        H322   1.083       .  S
C323        C324   1.408       .  A
C323        C328   1.394       .  A
C323        H329   1.083       .  S
C324        C325   1.406       .  A
C325        C326   1.401       .  A
C325        H330   1.083       .  S
C326        C327   1.405       .  A
C326        H331   1.083       .  S
C327        C328   1.402       .  A
C328        H332   1.083       .  S
C333        C334   1.408       .  A
C333        C338   1.403       .  A
C333        H339   1.083       .  S
C334        C335   1.404       .  A
C335        C336   1.394       .  A
C335        H340   1.083       .  S
C336        C337   1.408       .  A
C336        H341   1.083       .  S
C337        C338   1.407       .  A
C338        H342   1.083       .  S
C343        C344   1.404       .  A
C343       C1692   1.392   1_454  A
C343        H349   1.083       .  S
C344        C345   1.408       .  A
C345       C1690   1.407   1_454  A
C345        H350   1.083       .  S
C346        C347   1.407       .  A
C346       C1689   1.407   1_556  A
C346        H351   1.083       .  S
C347        C348   1.404       .  A
C348       C1687   1.393   1_556  A
C348        H352   1.083       .  S
C353        C354   1.407       .  A
C353        C358   1.405       .  A
C353        H359   1.083       .  S
C354        C355   1.403       .  A
C355        C356   1.392       .  A
C355       H1704   1.083       .  S
C356        C357   1.407       .  A
C356        H361   1.083       .  S
C357        C358   1.408       .  A
C358        H362   1.083       .  S
H360       C1699   1.083       .  S
C363        C364   1.407       .  A
C363        C368   1.395       .  A
C363        H369   1.083       .  S
C364        C365   1.408       .  A
C365        C366   1.403       .  A
C365        H370   1.083       .  S
C366        C367   1.407       .  A
C366        H371   1.083       .  S
C367        C368   1.405       .  A
C368        H372   1.083       .  S
C373        C374   1.409       .  A
C373        C378   1.404       .  A
C373        H379   1.083       .  S
C374        C375   1.403       .  A
C375        C376   1.394       .  A
C375        H380   1.083       .  S
C376        C377   1.409       .  A
C376        H381   1.083       .  S
C377        C378   1.406       .  A
C378        H382   1.083       .  S
C383        C388   1.395       .  A
C383       C1056   1.407       .  A
C383       H1061   1.083       .  S
C384       C1055   1.406       .  A
C384       C1057   1.406       .  A
C385        C386   1.403       .  A
C385       C1056   1.406       .  A
C385        H390   1.083       .  S
C386        C387   1.407       .  A
C386        H391   1.083       .  S
C387        C388   1.403       .  A
C388       H1736   1.083       .  S
H389       C1055   1.083       .  S
H392       C1732   1.083       .  S
C393        C394   1.406       .  A
C393        C398   1.403       .  A
C393        H399   1.083       .  S
C394        C395   1.408       .  A
C395        C396   1.393       .  A
C395        H400   1.083       .  S
C396        C397   1.402       .  A
C396        H401   1.083       .  S
C397        C398   1.407       .  A
C398        H402   1.083       .  S
C403        C404   1.407       .  A
C403        C408   1.403       .  A
C403        H409   1.083       .  S
C404        C405   1.403       .  A
C405        C406   1.394       .  A
C405        H410   1.083       .  S
C406       C1751   1.407       .  A
C406        H411   1.083       .  S
C407       C1750   1.407       .  A
C407       C1752   1.407       .  A
C408       C1751   1.407       .  A
C408       H1756   1.083       .  S
H412       C1752   1.083       .  S
C413        C418   1.406       .  A
C413       C1758   1.408       .  A
C413       H1763   1.083       .  S
C414       C1757   1.408       .  A
C414       C1759   1.407       .  A
C415        C416   1.393       .  A
C415       C1758   1.408       .  A
C415        H420   1.083       .  S
C416        C417   1.403       .  A
C416        H421   1.083       .  S
C417        C418   1.407       .  A
C418       H1094   1.083       .  S
H419       C1757   1.083       .  S
H422       C1090   1.083       .  S
C423        C424   1.408       .  A
C423        C428   1.402       .  A
C423        H429   1.083       .  S
C424        C425   1.403       .  A
C425        C426   1.393       .  A
C425        H430   1.083       .  S
C426        C427   1.407       .  A
C426        H431   1.083       .  S
C427        C428   1.406       .  A
C428        H432   1.083       .  S
C433        C434   1.403       .  A
C433        C438   1.394       .  A
C433        H439   1.083       .  S
C434        C435   1.407       .  A
C435        C436   1.402       .  A
C435        H440   1.083       .  S
C436        C437   1.407       .  A
C436        H441   1.083       .  S
C437        C438   1.407       .  A
C438        H442   1.083       .  S
C443        C444   1.408       .  A
C443        C448   1.402       .  A
C443        H449   1.083       .  S
C444        C445   1.402       .  A
C445        C446   1.393       .  A
C445        H450   1.083       .  S
C446       C1119   1.407       .  A
C446        H451   1.083       .  S
C447       C1118   1.408       .  A
C447       C1120   1.407       .  A
C448       C1119   1.406       .  A
C448       H1124   1.083   1_545  S
H452       C1120   1.083       .  S
C453        C454   1.408       .  A
C453        C458   1.407   1_556  A
C453        H459   1.083       .  S
C454        C455   1.404       .  A
C455        C456   1.391   1_556  A
C455        H460   1.083       .  S
C456        C457   1.403       .  A
C456        H461   1.083       .  S
C457        C458   1.407       .  A
C458        H462   1.083       .  S
C463        C464   1.404       .  A
C463        C468   1.404       .  A
C463        H469   1.083       .  S
C464        C465   1.402       .  A
C465        C466   1.397       .  A
C465        H470   1.084       .  S
C466        C467   1.402       .  A
C466        H471   1.083       .  S
C467        C468   1.405       .  A
C468        H472   1.083       .  S
C473        C478   1.395       .  A
C473       C1818   1.405       .  A
C473        H479   1.083       .  S
C474        C475   1.406       .  A
C474       C1817   1.405       .  A
C475        C476   1.407   1_455  A
C475        H480   1.083       .  S
C476       C1821   1.408       .  A
C476        H481   1.083       .  S
C477        C478   1.405       .  A
C477       C1820   1.408       .  A
C478        H482   1.083       .  S
C483        C484   1.404       .  A
C483        C488   1.403       .  A
C483        H489   1.083       .  S
C484        C485   1.402       .  A
C485        C486   1.397       .  A
C485        H490   1.084       .  S
C486        C487   1.402       .  A
C486        H491   1.083       .  S
C487        C488   1.405       .  A
C488        H492   1.083       .  S
C493        C494   1.403       .  A
C493        C498   1.392       .  A
C493        H499   1.084       .  S
C494        C495   1.406       .  A
C495        C496   1.406       .  A
C495        H500   1.083       .  S
C496        C497   1.404       .  A
C496        H501   1.083       .  S
C497        C498   1.401       .  A
C498        H502   1.084       .  S
C503        C504   1.407       .  A
C503        C508   1.403       .  A
C503        H509   1.083       .  S
C504        C505   1.403       .  A
C505        C506   1.395       .  A
C505        H510   1.083       .  S
C506        C507   1.407       .  A
C506        H511   1.083       .  S
C507        C508   1.407       .  A
C508        H512   1.083       .  S
C513        C514   1.406       .  A
C513        C518   1.392       .  A
C513        H519   1.083       .  S
C514        C515   1.406       .  A
C515        C516   1.403       .  A
C515        H520   1.083       .  S
C516        C517   1.406       .  A
C516       H1865   1.083       .  S
C517        C518   1.403       .  A
C518        H522   1.083       .  S
H521       C1860   1.083       .  S
C523        C524   1.406       .  A
C523       C1200   1.407       .  A
C523        H529   1.083       .  S
C524        C525   1.403       .  A
C525        C526   1.392       .  A
C525        H530   1.084       .  S
C526       C1199   1.405       .  A
C526        H531   1.083       .  S
C527        C528   1.408       .  A
C527       C1198   1.406       .  A
C528       C1195   1.407   1_545  A
C528        H532   1.083       .  S
C533        C534   1.408       .  A
C533        C538   1.402       .  A
C533       H1211   1.083       .  S
C534        C535   1.403       .  A
C535        C536   1.394       .  A
C535        H540   1.083       .  S
C536        C537   1.408       .  A
C536        H541   1.083       .  S
C537        C538   1.406       .  A
C538        H542   1.083       .  S
H539       C1205   1.083       .  S
C543        C544   1.406       .  A
C543        C548   1.394       .  A
C543        H549   1.083       .  S
C544        C545   1.407       .  A
C545        C546   1.401       .  A
C545        H550   1.083       .  S
C546        C547   1.406       .  A
C546        H551   1.083       .  S
C547        C548   1.403       .  A
C548        H552   1.083       .  S
C553        C554   1.403       .  A
C553        C558   1.402       .  A
C553        H559   1.083       .  S
C554        C555   1.403       .  A
C555        C556   1.398       .  A
C555        H560   1.084       .  S
C556        C557   1.402       .  A
C556        H561   1.083       .  S
C557        C558   1.404       .  A
C558        H562   1.083       .  S
C563        C564   1.404       .  A
C563        C568   1.398       .  A
C563        H569   1.084       .  S
C564        C565   1.403       .  A
C565        C566   1.405       .  A
C565        H570   1.083       .  S
C566        C567   1.406       .  A
C566        H571   1.083       .  S
C567        C568   1.402       .  A
C568        H572   1.084       .  S
C573        C574   1.406       .  A
C573        C578   1.402       .  A
C573        H579   1.083       .  S
C574        C575   1.406       .  A
C575        C576   1.392       .  A
C575        H580   1.083       .  S
C576        C577   1.403       .  A
C576        H581   1.083       .  S
C577        C578   1.408       .  A
C578        H582   1.083       .  S
C583        C584   1.407       .  A
C583        C588   1.402       .  A
C583        H589   1.083       .  S
C584        C585   1.404       .  A
C585        C586   1.396       .  A
C585        H590   1.083       .  S
C586       C1931   1.408       .  A
C586       H1935   1.083       .  S
C587       C1930   1.408       .  A
C587       C1932   1.407       .  A
C588       C1931   1.407       .  A
C588        H592   1.083       .  S
H591       C1930   1.083       .  S
C593        C594   1.409       .  A
C593        C598   1.395       .  A
C593        H599   1.083       .  S
C594        C595   1.407       .  A
C595        C596   1.403       .  A
C595        H600   1.083       .  S
C596        C597   1.408       .  A
C596        H601   1.083       .  S
C597        C598   1.403       .  A
C598        H602   1.083       .  S
C603        C604   1.401       .  A
C603        C608   1.391       .  A
C603        H609   1.083       .  S
C604        C605   1.405       .  A
C605        C606   1.402       .  A
C605        H610   1.083       .  S
C606       C1279   1.407       .  A
C606        H611   1.083       .  S
C607       C1278   1.408       .  A
C607       C1280   1.406       .  A
C608       C1279   1.406       .  A
C608       H1284   1.083       .  S
H612       C1280   1.083       .  S
C613        C614   1.403       .  A
C613        C618   1.403       .  A
C613        H619   1.083       .  S
C614        C615   1.404       .  A
C615        C616   1.400       .  A
C615        H620   1.084       .  S
C616        C617   1.403       .  A
C616        H621   1.083       .  S
C617        C618   1.405       .  A
C618        H622   1.083       .  S
C623        C624   1.405       .  A
C623        C628   1.396       .  A
C623        H629   1.083       .  S
C624        C625   1.408       .  A
C625        C626   1.410       .  A
C625        H630   1.083       .  S
C626        C627   1.408       .  A
C626        H631   1.083       .  S
C627        C628   1.405       .  A
C628        H632   1.083       .  S
C633        C638   1.403       .  A
C633       C1306   1.407       .  A
C633        H639   1.083       .  S
C634        C635   1.408       .  A
C634       C1305   1.407       .  A
C635       C1308   1.395       .  A
C635        H640   1.083       .  S
C636        C637   1.405       .  A
C636       C1307   1.395       .  A
C636        H641   1.083       .  S
C637        C638   1.407       .  A
C638        H642   1.083       .  S
C643        C644   1.404       .  A
C643        C648   1.396       .  A
C643        H649   1.083       .  S
C644        C645   1.406       .  A
C645        C646   1.400       .  A
C645        H650   1.083       .  S
C646        C647   1.407       .  A
C646        H651   1.083       .  S
C647        C648   1.407       .  A
C648        H652   1.083       .  S
C653        C654   1.401       .  A
C653        C658   1.391       .  A
C653        H659   1.083       .  S
C654        C655   1.407       .  A
C655        C656   1.403       .  A
C655        H660   1.083       .  S
C656       C2001   1.407       .  A
C656       H2005   1.083       .  S
C657       C2000   1.407       .  A
C657       C2002   1.406       .  A
C658       C2001   1.406       .  A
C658        H662   1.083       .  S
H661       C2000   1.083       .  S
C663        C664   1.403       .  A
C663        C668   1.393       .  A
C663        H669   1.083       .  S
C664        C665   1.407       .  A
C665        C666   1.402       .  A
C665        H670   1.083       .  S
C666        C667   1.407       .  A
C666        H671   1.083       .  S
C667        C668   1.407       .  A
C668        H672   1.083       .  S
O673       Ni679   1.924       .  S
O673        C694   1.270       .  A
O674       Ni697   1.912       .  S
O674        C683   1.268       .  A
O675       Ni679   1.905       .  S
O675       Ni697   1.920       .  S
O675       Ni691   1.920       .  S
O675        H698   0.966       .  S
C676        O693   1.279       .  A
C676        O685   1.279       .  A
C676       C1339   1.482       .  S
O677       Ni696   1.933       .  S
O677        C683   1.274       .  A
O678       Ni696   1.913       .  S
O678        C680   1.269       .  A
Ni679       O682   1.918       .  S
Ni679       O684   1.901       .  S
C680        O690   1.268       .  A
C680       C1316   1.482       .  S
O681       Ni697   1.912       .  S
O681        C687   1.270       .  A
O682        C687   1.273       .  A
C683       C1296   1.478       .  S
O684        C686   1.271       .  A
O685       Ni696   1.921       .  S
C686        O692   1.278       .  A
C686       C1306   1.487   1_565  S
C687       C1326   1.476       .  S
H688        O689   0.966       .  S
O689       Ni697   1.901       .  S
O689       Ni691   1.902       .  S
O689       Ni696   1.901       .  S
O690       Ni691   1.920       .  S
Ni691       O695   1.911       .  S
Ni691       O693   1.923       .  S
O692       Ni697   1.947       .  S
C694        O695   1.266       .  A
C694       C1286   1.467       .  S
O699       Ni705   1.926       .  S
O699        C720   1.269       .  A
O700       Ni723   1.912       .  S
O700        C709   1.269       .  A
O701       Ni705   1.902       .  S
O701       Ni723   1.915       .  S
O701       Ni717   1.918       .  S
O701        H724   0.967       .  S
C702        O719   1.281       .  A
C702        O711   1.279       .  A
C702       C1266   1.484       .  S
O703       Ni722   1.931       .  S
O703        C709   1.274       .  A
O704       Ni722   1.910       .  S
O704        C706   1.270       .  A
Ni705       O708   1.924       .  S
Ni705       O710   1.899       .  S
C706        O716   1.270       .  A
C706       C1249   1.484       .  S
O707       Ni723   1.912       .  S
O707        C713   1.273       .  A
O708        C713   1.276       .  A
C709       C1299   1.484       .  S
O710        C712   1.269       .  A
O711       Ni722   1.918       .  S
C712        O718   1.276       .  A
C712       C1259   1.486       .  S
C713       C1276   1.479       .  S
H714        O715   0.966       .  S
O715       Ni723   1.904       .  S
O715       Ni717   1.902       .  S
O715       Ni722   1.894       .  S
O716       Ni717   1.924       .  S
Ni717       O721   1.915       .  S
Ni717       O719   1.930       .  S
O718       Ni723   1.942       .  S
C720        O721   1.267       .  A
C720       C1236   1.467       .  S
O725       Ni731   1.918       .  S
O725        C746   1.265       .  A
O726       Ni749   1.909       .  S
O726        C735   1.266       .  A
O727       Ni731   1.898       .  S
O727       Ni749   1.905       .  S
O727       Ni743   1.919       .  S
O727        H750   0.966       .  S
C728        O745   1.281       .  A
C728        O737   1.280       .  A
C728       C1216   1.486       .  S
O729       Ni748   1.931       .  S
O729        C735   1.273       .  A
O730       Ni748   1.902       .  S
O730        C732   1.268       .  A
Ni731       O734   1.925       .  S
Ni731       O736   1.895       .  S
C732        O742   1.271       .  A
C732       C1336   1.478       .  S
O733       Ni749   1.915       .  S
C735       C1196   1.477       .  S
O736        C738   1.268       .  A
O737       Ni748   1.922       .  S
C738        O744   1.271       .  A
C738       C1329   1.480   1_455  S
C739       C1206   1.478       .  S
H740        O741   0.966       .  S
O741       Ni749   1.910       .  S
O741       Ni743   1.908       .  S
O741       Ni748   1.893       .  S
O742       Ni743   1.926       .  S
Ni743       O747   1.926       .  S
Ni743       O745   1.929       .  S
O744       Ni749   1.930       .  S
C746        O747   1.269       .  A
C746       C1226   1.468       .  S
O751       Ni757   1.924       .  S
O751        C772   1.269       .  A
O752       Ni775   1.915       .  S
O752        C761   1.269       .  A
O753       Ni757   1.897       .  S
O753       Ni775   1.910       .  S
O753       Ni769   1.917       .  S
O753        H776   0.966       .  S
C754        O771   1.282       .  A
C754        O763   1.278       .  A
C754       C1246   1.487       .  S
O755       Ni774   1.929       .  S
O755        C761   1.273       .  A
O756       Ni774   1.902       .  S
O756        C758   1.269       .  A
Ni757       O760   1.926       .  S
Ni757       O762   1.896       .  S
C758        O768   1.272       .  A
C758       C1176   1.479       .  S
O759       Ni775   1.917       .  S
C761       C1199   1.484       .  S
O762        C764   1.268       .  A
O763       Ni774   1.916       .  S
C764        O770   1.272       .  A
C764       C1186   1.483       .  S
C765       C1256   1.482       .  S
H766        O767   0.966       .  S
O767       Ni775   1.910       .  S
O767       Ni769   1.909       .  S
O767       Ni774   1.891       .  S
O768       Ni769   1.926       .  S
Ni769       O773   1.928       .  S
Ni769       O771   1.935       .  S
O770       Ni775   1.935       .  S
C772        O773   1.270       .  A
C772       C1166   1.479       .  S
O777       Ni783   1.920       .  S
O777        C798   1.267       .  A
O778       Ni801   1.911       .  S
O778        C787   1.269       .  A
O779       Ni783   1.898       .  S
O779       Ni801   1.907       .  S
O779       Ni795   1.923       .  S
O779        H802   0.966       .  S
C780        O797   1.283       .  A
C780        O789   1.279       .  A
C780       C1319   1.486       .  S
O781       Ni800   1.928       .  S
O781        C787   1.273       .  A
O782       Ni800   1.908       .  S
O782        C784   1.269       .  A
Ni783       O786   1.928       .  S
Ni783       O788   1.894       .  S
C784        O794   1.271       .  A
C784       C1219   1.481       .  S
O785       Ni801   1.921       .  S
O785       C2135   1.277   1_455  A
O786       C2135   1.279   1_455  A
C787       C1146   1.475       .  S
O788        C790   1.267       .  A
O789       Ni800   1.918       .  S
C790        O796   1.274       .  A
C790       C1209   1.481       .  S
C791       O2129   1.278       .  A
C791       O2130   1.279       .  A
C791       C1309   1.488       .  S
H792        O793   0.966       .  S
O793       Ni801   1.909       .  S
O793       Ni795   1.900       .  S
O793       Ni800   1.890       .  S
O794       Ni795   1.924       .  S
Ni795       O799   1.921       .  S
Ni795       O797   1.934       .  S
O796       Ni801   1.935       .  S
C798        O799   1.268       .  A
C798       C1156   1.467       .  S
O803       Ni809   1.920       .  S
O803        C824   1.266       .  A
O804       Ni827   1.909       .  S
O804        C813   1.268       .  A
O805       Ni809   1.898       .  S
O805       Ni827   1.910       .  S
O805       Ni821   1.913       .  S
O805        H828   0.966       .  S
C806        O823   1.279       .  A
C806        O815   1.279       .  A
C806       C1179   1.483       .  S
O807       Ni826   1.931       .  S
O807        C813   1.274       .  A
O808       Ni826   1.909       .  S
O808        C810   1.270       .  A
Ni809       O812   1.918       .  S
Ni809       O814   1.894       .  S
C810        O820   1.270       .  A
C810       C1269   1.480       .  S
O811       Ni827   1.921       .  S
O811       C2161   1.277       .  A
O812       C2161   1.277       .  A
C813       C1149   1.481       .  S
O814        C816   1.267       .  A
O815       Ni826   1.920       .  S
C816        O822   1.272       .  A
C816       C1279   1.479       .  S
C817       O2155   1.276   1_455  A
C817       O2156   1.277   1_455  A
C817       C1189   1.480       .  S
H818        O819   0.966       .  S
O819       Ni827   1.910       .  S
O819       Ni821   1.906       .  S
O819       Ni826   1.895       .  S
O820       Ni821   1.922       .  S
Ni821       O825   1.920       .  S
Ni821       O823   1.926       .  S
O822       Ni827   1.933       .  S
C824        O825   1.267       .  A
C824       C1136   1.466       .  S
O829       Ni835   1.925       .  S
O829        C850   1.268       .  A
O830       Ni853   1.912       .  S
O830        C839   1.268       .  A
O831       Ni835   1.899       .  S
O831       Ni853   1.910       .  S
O831       Ni847   1.914       .  S
O831        H854   0.966       .  S
C832        O849   1.281       .  A
C832        O841   1.281       .  A
C832       C1109   1.487       .  S
O833       Ni852   1.939       .  S
O833        C839   1.275       .  A
O834       Ni852   1.909       .  S
O834        C836   1.270       .  A
Ni835       O838   1.928       .  S
Ni835       O840   1.897       .  S
C836        O846   1.272       .  A
C836       C1096   1.483       .  S
O837       Ni853   1.912       .  S
O837        C843   1.274       .  A
O838        C843   1.278       .  A
C839       C1129   1.483       .  S
O840        C842   1.267       .  A
O841       Ni852   1.925       .  S
C842        O848   1.274       .  A
C842       C1086   1.483   1_455  S
C843       C1116   1.478       .  S
H844        O845   0.966       .  S
O845       Ni853   1.906       .  S
O845       Ni847   1.904       .  S
O845       Ni852   1.892       .  S
O846       Ni847   1.926       .  S
Ni847       O851   1.921       .  S
Ni847       O849   1.931       .  S
O848       Ni853   1.938       .  S
C850        O851   1.268       .  A
C850       C1159   1.471       .  S
O855       Ni861   1.913       .  S
O855        C876   1.265       .  A
O856       Ni879   1.915       .  S
O856        C865   1.270       .  A
O857       Ni861   1.897       .  S
O857       Ni879   1.907       .  S
O857       Ni873   1.922       .  S
O857        H880   0.966       .  S
C858        O875   1.281       .  A
C858        O867   1.280       .  A
C858       C1066   1.486       .  S
O859       Ni878   1.936       .  S
O859        C865   1.275       .  A
O860       Ni878   1.909       .  S
O860        C862   1.270       .  A
Ni861       O864   1.921       .  S
Ni861       O866   1.899       .  S
C862        O872   1.270       .  A
C862       C1046   1.478       .  S
O863       Ni879   1.923       .  S
O863        C869   1.278       .  A
O864        C869   1.278       .  A
C865       C1126   1.487       .  S
O866        C868   1.268       .  A
O867       Ni878   1.923       .  S
C868        O874   1.274       .  A
C868       C1056   1.483       .  S
C869       C1076   1.480       .  S
H870        O871   0.966       .  S
O871       Ni879   1.914       .  S
O871       Ni873   1.909       .  S
O871       Ni878   1.894       .  S
O872       Ni873   1.919       .  S
Ni873       O877   1.930       .  S
Ni873       O875   1.930       .  S
O874       Ni879   1.937       .  S
C876        O877   1.268       .  A
C876       C1169   1.472       .  S
O881       Ni887   1.926       .  S
O881        C902   1.269       .  A
O882       Ni905   1.919       .  S
O882        C891   1.270       .  A
O883       Ni887   1.901       .  S
O883       Ni905   1.913       .  S
O883       Ni899   1.918       .  S
O883        H906   0.966       .  S
C884        O901   1.282       .  A
C884        O893   1.280       .  A
C884       C1036   1.489       .  S
O885       Ni904   1.928       .  S
O885        C891   1.273       .  A
O886       Ni904   1.906       .  S
O886        C888   1.269       .  A
Ni887       O890   1.928       .  S
Ni887       O892   1.896       .  S
C888        O898   1.272       .  A
C888       C1106   1.481       .  S
O889       Ni905   1.916       .  S
O889       C2239   1.275   1_455  A
O890       C2239   1.278   1_455  A
C891       C1016   1.485       .  S
O892        C894   1.268       .  A
O893       Ni904   1.919       .  S
C894        O900   1.274       .  A
C894       C1119   1.482   1_565  S
C895       O2233   1.275       .  A
C895       O2234   1.278       .  A
C895       C1026   1.480       .  S
H896        O897   0.966       .  S
O897       Ni905   1.910       .  S
O897       Ni899   1.905       .  S
O897       Ni904   1.890       .  S
O898       Ni899   1.928       .  S
Ni899       O903   1.920       .  S
Ni899       O901   1.936       .  S
O900       Ni905   1.939       .  S
C902        O903   1.268       .  A
C902       C1229   1.471       .  S
O907       Ni913   1.924       .  S
O907        C928   1.269       .  A
O908       Ni931   1.919       .  S
O908        C917   1.269       .  A
O909       Ni913   1.900       .  S
O909       Ni931   1.913       .  S
O909       Ni925   1.917       .  S
O909        H932   0.965       .  S
C910        O927   1.282       .  A
C910        O919   1.278       .  A
C910       C1049   1.483       .  S
O911       Ni930   1.924       .  S
O911        C917   1.272       .  A
O912       Ni930   1.907       .  S
O912        C914   1.269       .  A
Ni913       O916   1.926       .  S
Ni913       O918   1.900       .  S
C914        O924   1.270       .  A
C914       C1006   1.482       .  S
O915       Ni931   1.908       .  S
O915       C2265   1.273       .  A
O916       C2265   1.277       .  A
C917       C1019   1.482       .  S
O918        C920   1.268       .  A
O919       Ni930   1.912       .  S
C920        O926   1.275       .  A
C920        C996   1.486       .  S
C921       O2259   1.274   1_455  A
C921       O2260   1.277   1_455  A
C921       C1059   1.478       .  S
H922        O923   0.966       .  S
O923       Ni931   1.904       .  S
O923       Ni925   1.903       .  S
O923       Ni930   1.891       .  S
O924       Ni925   1.925       .  S
Ni925       O929   1.918       .  S
Ni925       O927   1.934       .  S
O926       Ni931   1.941       .  S
C928        O929   1.268       .  A
C928       C1239   1.467       .  S
O933       Ni939   1.923       .  S
O933        C954   1.270       .  A
O934       Ni957   1.914       .  S
O934        C943   1.268       .  A
O935       Ni939   1.903       .  S
O935       Ni957   1.915       .  S
O935       Ni951   1.923       .  S
O935        H958   0.966       .  S
C936        O953   1.284       .  A
C936        O945   1.279       .  A
C936       C1099   1.487       .  S
O937       Ni956   1.929       .  S
O937        C943   1.273       .  A
O938       Ni956   1.907       .  S
O938        C940   1.269       .  A
Ni939       O942   1.932       .  S
Ni939       O944   1.902       .  S
C940        O950   1.273       .  A
C940       C1039   1.487       .  S
O941       Ni957   1.913       .  S
C943        C986   1.476       .  S
O944        C946   1.268       .  A
O945       Ni956   1.916       .  S
C946        O952   1.276       .  A
C946       C1029   1.485       .  S
C947       C1089   1.476       .  S
H948        O949   0.966       .  S
O949       Ni957   1.904       .  S
O949       Ni951   1.898       .  S
O949       Ni956   1.888       .  S
O950       Ni951   1.933       .  S
Ni951       O955   1.917       .  S
Ni951       O953   1.939       .  S
O952       Ni957   1.944       .  S
C954        O955   1.270       .  A
C954       C1289   1.467       .  S
O959       Ni965   1.932       .  S
O959        C980   1.271       .  A
O960       Ni983   1.920       .  S
O960        C969   1.270       .  A
O961       Ni965   1.904       .  S
O961       Ni983   1.913       .  S
O961       Ni977   1.914       .  S
O961        H984   0.966       .  S
C962        O979   1.281       .  A
C962        O971   1.278       .  A
C962       C1009   1.485       .  S
O963       Ni982   1.927       .  S
O963        C969   1.272       .  A
O964       Ni982   1.907       .  S
O964        C966   1.269       .  A
Ni965       O968   1.931       .  S
Ni965       O970   1.906       .  S
C966        O976   1.271       .  A
C966       C1069   1.480       .  S
O967       Ni983   1.907       .  S
C969        C989   1.484       .  S
O970        C972   1.270       .  A
O971       Ni982   1.916       .  S
C972        O978   1.274       .  A
C972       C1079   1.486       .  S
C973        C999   1.479       .  S
H974        O975   0.966       .  S
O975       Ni983   1.906       .  S
O975       Ni977   1.904       .  S
O975       Ni982   1.892       .  S
O976       Ni977   1.926       .  S
Ni977       O981   1.912       .  S
Ni977       O979   1.932       .  S
O978       Ni983   1.939       .  S
C980        O981   1.267       .  A
C980       C1139   1.468       .  S
C985        C986   1.401       .  A
C985        H991   1.084       .  S
C986        C987   1.406       .  A
C987        H992   1.083       .  S
C988        C989   1.408       .  A
C988        H993   1.083       .  S
C989        C990   1.404       .  A
C990        H994   1.083       .  S
C995        C996   1.407       .  A
C995       C1000   1.394       .  A
C995       H1001   1.083       .  S
C996        C997   1.408       .  A
C997        C998   1.403       .  A
C997       H1002   1.083       .  S
C998        C999   1.406       .  A
C998       H1003   1.083       .  S
C999       C1000   1.403       .  A
C1000      H1004   1.083       .  S
C1005      C1006   1.407       .  A
C1005      C1010   1.403       .  A
C1005      H1011   1.083       .  S
C1006      C1007   1.403       .  A
C1007      C1008   1.393       .  A
C1007      H1012   1.083       .  S
C1008      C1009   1.407       .  A
C1008      H1013   1.083       .  S
C1009      C1010   1.407       .  A
C1010      H1014   1.083       .  S
C1015      C1016   1.404       .  A
C1015      C2364   1.391   1_454  A
C1015      H1021   1.083       .  S
C1016      C1017   1.409       .  A
C1017      C2362   1.409   1_454  A
C1017      H1022   1.083       .  S
C1018      C2361   1.409   1_556  A
C1018      C1019   1.408       .  A
C1018      H1023   1.083       .  S
C1019      C1020   1.403       .  A
C1020      C2359   1.390   1_556  A
C1020      H1024   1.083       .  S
C1025      C1026   1.406       .  A
C1025      C1030   1.402       .  A
C1025      H1031   1.083       .  S
C1026      C1027   1.403       .  A
C1027      C1028   1.396       .  A
C1027      H2376   1.083       .  S
C1028      C1029   1.407       .  A
C1028      H1033   1.083       .  S
C1029      C1030   1.407       .  A
C1030      H1034   1.083       .  S
H1032      C2371   1.083       .  S
C1035      C1036   1.407       .  A
C1035      C1040   1.394       .  A
C1035      H1041   1.083       .  S
C1036      C1037   1.409       .  A
C1037      C1038   1.406       .  A
C1037      H1042   1.083       .  S
C1038      C1039   1.408       .  A
C1038      H1043   1.083       .  S
C1039      C1040   1.405       .  A
C1040      H1044   1.083       .  S
C1045      C1046   1.407       .  A
C1045      C1050   1.401       .  A
C1045      H1051   1.083       .  S
C1046      C1047   1.402       .  A
C1047      C1048   1.393       .  A
C1047      H1052   1.083       .  S
C1048      C1049   1.408       .  A
C1048      H1053   1.083       .  S
C1049      C1050   1.406       .  A
C1050      H1054   1.083       .  S
C1055      C1060   1.392       .  A
C1057      C1058   1.401       .  A
C1057      H1062   1.083       .  S
C1058      C1059   1.407       .  A
C1058      H1063   1.083       .  S
C1059      C1060   1.403       .  A
C1060      H2408   1.083       .  S
H1064      C2404   1.083       .  S
C1065      C1066   1.408       .  A
C1065      C1070   1.403       .  A
C1065      H1071   1.083       .  S
C1066      C1067   1.407       .  A
C1067      C1068   1.395       .  A
C1067      H1072   1.083       .  S
C1068      C1069   1.403       .  A
C1068      H1073   1.083       .  S
C1069      C1070   1.406       .  A
C1070      H1074   1.083       .  S
C1075      C1076   1.406       .  A
C1075      C1080   1.403       .  A
C1075      H1081   1.083       .  S
C1076      C1077   1.404       .  A
C1077      C1078   1.394       .  A
C1077      H1082   1.083       .  S
C1078      C2423   1.406       .  A
C1078      H1083   1.083       .  S
C1079      C2422   1.406       .  A
C1079      C2424   1.408       .  A
C1080      C2423   1.408       .  A
C1080      H2428   1.083       .  S
H1084      C2424   1.083       .  S
C1085      C2430   1.406       .  A
C1085      C1090   1.402       .  A
C1085      H2435   1.083       .  S
C1086      C2429   1.406       .  A
C1086      C2431   1.407       .  A
C1087      C2430   1.407       .  A
C1087      C1088   1.392       .  A
C1087      H1092   1.083       .  S
C1088      C1089   1.402       .  A
C1088      H1093   1.083       .  S
C1089      C1090   1.407       .  A
H1091      C2429   1.083       .  S
C1095      C1096   1.407       .  A
C1095      C1100   1.403       .  A
C1095      H1101   1.083       .  S
C1096      C1097   1.404       .  A
C1097      C1098   1.395       .  A
C1097      H1102   1.083       .  S
C1098      C1099   1.408       .  A
C1098      H1103   1.083       .  S
C1099      C1100   1.407       .  A
C1100      H1104   1.083       .  S
C1105      C1106   1.404       .  A
C1105      C1110   1.396       .  A
C1105      H1111   1.083       .  S
C1106      C1107   1.407       .  A
C1107      C1108   1.403       .  A
C1107      H1112   1.083       .  S
C1108      C1109   1.408       .  A
C1108      H1113   1.083       .  S
C1109      C1110   1.407       .  A
C1110      H1114   1.083       .  S
C1115      C1116   1.407       .  A
C1115      C1120   1.402       .  A
C1115      H1121   1.083       .  S
C1116      C1117   1.403       .  A
C1117      C1118   1.394       .  A
C1117      H1122   1.083       .  S
C1118      H1123   1.083       .  S
C1125      C1126   1.408       .  A
C1125      C1130   1.407   1_556  A
C1125      H1131   1.083       .  S
C1126      C1127   1.406       .  A
C1127      C1128   1.395   1_556  A
C1127      H1132   1.083       .  S
C1128      C1129   1.403       .  A
C1128      H1133   1.083       .  S
C1129      C1130   1.407       .  A
C1130      H1134   1.083       .  S
C1135      C1136   1.402       .  A
C1135      C1140   1.399       .  A
C1135      H1141   1.083       .  S
C1136      C1137   1.403       .  A
C1137      C1138   1.400       .  A
C1137      H1142   1.083       .  S
C1138      C1139   1.402       .  A
C1138      H1143   1.083       .  S
C1139      C1140   1.403       .  A
C1140      H1144   1.084       .  S
C1145      C2490   1.402       .  A
C1145      C1150   1.391       .  A
C1145      H1151   1.084       .  S
C1146      C2489   1.403       .  A
C1146      C1147   1.405       .  A
C1147      C1148   1.405   1_455  A
C1147      H1152   1.083       .  S
C1148      C2493   1.408       .  A
C1148      H1153   1.083       .  S
C1149      C2492   1.408       .  A
C1149      C1150   1.404       .  A
C1150      H1154   1.083       .  S
C1155      C1156   1.404       .  A
C1155      C1160   1.404       .  A
C1155      H1161   1.083       .  S
C1156      C1157   1.401       .  A
C1157      C1158   1.395       .  A
C1157      H1162   1.084       .  S
C1158      C1159   1.402       .  A
C1158      H1163   1.084       .  S
C1159      C1160   1.405       .  A
C1160      H1164   1.083       .  S
C1165      C1166   1.403       .  A
C1165      C1170   1.393       .  A
C1165      H1171   1.084       .  S
C1166      C1167   1.407       .  A
C1167      C1168   1.408       .  A
C1167      H1172   1.083       .  S
C1168      C1169   1.405       .  A
C1168      H1173   1.083       .  S
C1169      C1170   1.401       .  A
C1170      H1174   1.084       .  S
C1175      C1176   1.406       .  A
C1175      C1180   1.402       .  A
C1175      H1181   1.083       .  S
C1176      C1177   1.404       .  A
C1177      C1178   1.393       .  A
C1177      H1182   1.083       .  S
C1178      C1179   1.406       .  A
C1178      H1183   1.083       .  S
C1179      C1180   1.408       .  A
C1180      H1184   1.083       .  S
C1185      C1186   1.405       .  A
C1185      C1190   1.390       .  A
C1185      H1191   1.083       .  S
C1186      C1187   1.408       .  A
C1187      C1188   1.405       .  A
C1187      H1192   1.083       .  S
C1188      C1189   1.408       .  A
C1188      H2537   1.083       .  S
C1189      C1190   1.403       .  A
C1190      H1194   1.083       .  S
H1193      C2532   1.083       .  S
C1195      C1196   1.406       .  A
C1195      H1201   1.083       .  S
C1196      C1197   1.401       .  A
C1197      C1198   1.390   1_565  A
C1197      H1202   1.084       .  S
C1198      H1203   1.083       .  S
C1199      C1200   1.408       .  A
C1200      H1204   1.083       .  S
C1205      C1206   1.407       .  A
C1205      C1210   1.403       .  A
C1206      C1207   1.403       .  A
C1207      C1208   1.389       .  A
C1207      H1212   1.083       .  S
C1208      C1209   1.406       .  A
C1208      H1213   1.083       .  S
C1209      C1210   1.407       .  A
C1210      H1214   1.083       .  S
C1215      C1216   1.407       .  A
C1215      C1220   1.395       .  A
C1215      H1221   1.083       .  S
C1216      C1217   1.407       .  A
C1217      C1218   1.402       .  A
C1217      H1222   1.083       .  S
C1218      C1219   1.407       .  A
C1218      H1223   1.083       .  S
C1219      C1220   1.404       .  A
C1220      H1224   1.083       .  S
C1225      C1226   1.404       .  A
C1225      C1230   1.404       .  A
C1225      H1231   1.083       .  S
C1226      C1227   1.402       .  A
C1227      C1228   1.397       .  A
C1227      H1232   1.084       .  S
C1228      C1229   1.402       .  A
C1228      H1233   1.083       .  S
C1229      C1230   1.405       .  A
C1230      H1234   1.083       .  S
C1235      C1236   1.403       .  A
C1235      C1240   1.400       .  A
C1235      H1241   1.083       .  S
C1236      C1237   1.402       .  A
C1237      C1238   1.399       .  A
C1237      H1242   1.083       .  S
C1238      C1239   1.403       .  A
C1238      H1243   1.084       .  S
C1239      C1240   1.402       .  A
C1240      H1244   1.083       .  S
C1245      C1246   1.407       .  A
C1245      C1250   1.404       .  A
C1245      H1251   1.083       .  S
C1246      C1247   1.408       .  A
C1247      C1248   1.394       .  A
C1247      H1252   1.083       .  S
C1248      C1249   1.403       .  A
C1248      H1253   1.083       .  S
C1249      C1250   1.409       .  A
C1250      H1254   1.083       .  S
C1255      C1256   1.408       .  A
C1255      C1260   1.403       .  A
C1255      H1261   1.083       .  S
C1256      C1257   1.404       .  A
C1257      C1258   1.394       .  A
C1257      H1262   1.083       .  S
C1258      C2603   1.407       .  A
C1258      H2607   1.083       .  S
C1259      C2602   1.407       .  A
C1259      C2604   1.407       .  A
C1260      C2603   1.407       .  A
C1260      H1264   1.083       .  S
H1263      C2602   1.083       .  S
C1265      C1266   1.407       .  A
C1265      C1270   1.395       .  A
C1265      H1271   1.083       .  S
C1266      C1267   1.407       .  A
C1267      C1268   1.401       .  A
C1267      H1272   1.083       .  S
C1268      C1269   1.407       .  A
C1268      H1273   1.083       .  S
C1269      C1270   1.403       .  A
C1270      H1274   1.083       .  S
C1275      C1276   1.403       .  A
C1275      C1280   1.392       .  A
C1275      H1281   1.083       .  S
C1276      C1277   1.407       .  A
C1277      C1278   1.404       .  A
C1277      H1282   1.083       .  S
C1278      H1283   1.083       .  S
C1285      C1286   1.401       .  A
C1285      C1290   1.400       .  A
C1285      H1291   1.083       .  S
C1286      C1287   1.403       .  A
C1287      C1288   1.398       .  A
C1287      H1292   1.084       .  S
C1288      C1289   1.402       .  A
C1288      H1293   1.083       .  S
C1289      C1290   1.404       .  A
C1290      H1294   1.083       .  S
C1295      C1296   1.402       .  A
C1295      C1300   1.392       .  A
C1295      H1301   1.084       .  S
C1296      C1297   1.406       .  A
C1297      C1298   1.407       .  A
C1297      H1302   1.083       .  S
C1298      C1299   1.409       .  A
C1298      H1303   1.083       .  S
C1299      C1300   1.405       .  A
C1300      H1304   1.083       .  S
C1305      C1310   1.406       .  A
C1305      H1311   1.083       .  S
C1306      C1307   1.407       .  A
C1307      H1312   1.083       .  S
C1308      C1309   1.405       .  A
C1308      H1313   1.083       .  S
C1309      C1310   1.409       .  A
C1310      H1314   1.083       .  S
C1315      C1316   1.403       .  A
C1315      C1320   1.396       .  A
C1315      H1321   1.083       .  S
C1316      C1317   1.408       .  A
C1317      C1318   1.402       .  A
C1317      H1322   1.083       .  S
C1318      C1319   1.406       .  A
C1318      H1323   1.083       .  S
C1319      C1320   1.408       .  A
C1320      H1324   1.083       .  S
C1325      C1326   1.402       .  A
C1325      C1330   1.388       .  A
C1325      H1331   1.083       .  S
C1326      C1327   1.406       .  A
C1327      C1328   1.405       .  A
C1327      H1332   1.083       .  S
C1328      C2673   1.409       .  A
C1328      H2677   1.083       .  S
C1329      C2672   1.409       .  A
C1329      C2674   1.404       .  A
C1330      C2673   1.404       .  A
C1330      H1334   1.083       .  S
H1333      C2672   1.083       .  S
C1335      C1336   1.404       .  A
C1335      C1340   1.394       .  A
C1335      H1341   1.083       .  S
C1336      C1337   1.406       .  A
C1337      C1338   1.401       .  A
C1337      H1342   1.083       .  S
C1338      C1339   1.407       .  A
C1338      H1343   1.083       .  S
C1339      C1340   1.405       .  A
C1340      H1344   1.083       .  S
O1345     Ni1351   1.925       .  S
O1345      C1366   1.268       .  A
O1346     Ni1369   1.918       .  S
O1346      C1355   1.270       .  A
O1347     Ni1351   1.903       .  S
O1347     Ni1369   1.918       .  S
O1347     Ni1363   1.917       .  S
O1347      H1370   0.966       .  S
C1348      O1365   1.281       .  A
C1348      O1357   1.279       .  A
C1348      C2011   1.484       .  S
O1349     Ni1368   1.935       .  S
O1349      C1355   1.274       .  A
O1350     Ni1368   1.910       .  S
O1350      C1352   1.269       .  A
Ni1351     O1354   1.923       .  S
Ni1351     O1356   1.899       .  S
C1352      O1362   1.269       .  A
C1352      C1988   1.479       .  S
O1353     Ni1369   1.908       .  S
O1353      C1359   1.271       .  A
O1354      C1359   1.275       .  A
C1355      C1968   1.490       .  S
O1356      C1358   1.269       .  A
O1357     Ni1368   1.920       .  S
C1358      O1364   1.278       .  A
C1358      C1978   1.489       .  S
C1359      C1998   1.474       .  S
H1360      O1361   0.966       .  S
O1361     Ni1369   1.904       .  S
O1361     Ni1363   1.909       .  S
O1361     Ni1368   1.899       .  S
O1362     Ni1363   1.920       .  S
Ni1363     O1367   1.924       .  S
Ni1363     O1365   1.928       .  S
O1364     Ni1369   1.948       .  S
C1366      O1367   1.269       .  A
C1366      C1958   1.473       .  S
O1371     Ni1377   1.920       .  S
O1371      C1392   1.270       .  A
O1372     Ni1395   1.918       .  S
O1372      C1381   1.268       .  A
O1373     Ni1377   1.908       .  S
O1373     Ni1395   1.921       .  S
O1373     Ni1389   1.929       .  S
O1373      H1396   0.967       .  S
C1374      O1391   1.282       .  A
C1374      O1383   1.278       .  A
C1374      C1938   1.488       .  S
O1375     Ni1394   1.935       .  S
O1375      C1381   1.272       .  A
O1376     Ni1394   1.903       .  S
O1376      C1378   1.269       .  A
Ni1377     O1380   1.925       .  S
Ni1377     O1382   1.902       .  S
C1378      O1388   1.269       .  A
C1378      C1921   1.478       .  S
O1379     Ni1395   1.903       .  S
O1379      C1385   1.266       .  A
O1380      C1385   1.272       .  A
C1381      C1971   1.487       .  S
O1382      C1384   1.271       .  A
O1383     Ni1394   1.917       .  S
C1384      O1390   1.280       .  A
C1384      C1931   1.486   1_655  S
C1385      C1948   1.471       .  S
H1386      O1387   0.966       .  S
O1387     Ni1395   1.900       .  S
O1387     Ni1389   1.909       .  S
O1387     Ni1394   1.901       .  S
O1388     Ni1389   1.921       .  S
Ni1389     O1393   1.922       .  S
Ni1389     O1391   1.935       .  S
O1390     Ni1395   1.950       .  S
C1392      O1393   1.271       .  A
C1392      C1908   1.472       .  S
O1397     Ni1403   1.921       .  S
O1397      C1418   1.267       .  A
O1398     Ni1421   1.915       .  S
O1398      C1407   1.268       .  A
O1399     Ni1403   1.897       .  S
O1399     Ni1421   1.910       .  S
O1399     Ni1415   1.912       .  S
O1399      H1422   0.966       .  S
C1400      O1417   1.280       .  A
C1400      O1409   1.279       .  A
C1400      C1888   1.484       .  S
O1401     Ni1420   1.930       .  S
O1401      C1407   1.272       .  A
O1402     Ni1420   1.905       .  S
O1402      C1404   1.269       .  A
Ni1403     O1406   1.919       .  S
Ni1403     O1408   1.896       .  S
C1404      O1414   1.270       .  A
C1404      C2008   1.479       .  S
O1405     Ni1421   1.915       .  S
O1405      C2083   1.275       .  A
O1406      C2083   1.277       .  A
C1407      C1868   1.479       .  S
O1408      C1410   1.267       .  A
O1409     Ni1420   1.919       .  S
C1410      O1416   1.274       .  A
C1410      C2001   1.482       .  S
C1411      O2077   1.276   1_545  A
C1411      O2078   1.279   1_545  A
C1411      C1878   1.479       .  S
H1412      O1413   0.966       .  S
O1413     Ni1421   1.910       .  S
O1413     Ni1415   1.909       .  S
O1413     Ni1420   1.896       .  S
O1414     Ni1415   1.922       .  S
Ni1415     O1419   1.921       .  S
Ni1415     O1417   1.927       .  S
O1416     Ni1421   1.938       .  S
C1418      O1419   1.267       .  A
C1418      C1898   1.468       .  S
O1423     Ni1429   1.924       .  S
O1423      C1444   1.268       .  A
O1424     Ni1447   1.917       .  S
O1424      C1433   1.270       .  A
O1425     Ni1429   1.899       .  S
O1425     Ni1447   1.913       .  S
O1425     Ni1441   1.915       .  S
O1425      H1448   0.966       .  S
C1426      O1443   1.279       .  A
C1426      O1435   1.278       .  A
C1426      C1918   1.480       .  S
O1427     Ni1446   1.925       .  S
O1427      C1433   1.273       .  A
O1428     Ni1446   1.906       .  S
O1428      C1430   1.269       .  A
Ni1429     O1432   1.923       .  S
Ni1429     O1434   1.895       .  S
C1430      O1440   1.271       .  A
C1430      C1848   1.481       .  S
O1431     Ni1447   1.920       .  S
O1431      C2109   1.276   1_545  A
O1432      C2109   1.278   1_545  A
C1433      C1871   1.484       .  S
O1434      C1436   1.267       .  A
O1435     Ni1446   1.916       .  S
C1436      O1442   1.273       .  A
C1436      C1858   1.480       .  S
C1437      O2103   1.275       .  A
C1437      O2104   1.278       .  A
C1437      C1928   1.480       .  S
H1438      O1439   0.966       .  S
O1439     Ni1447   1.907       .  S
O1439     Ni1441   1.907       .  S
O1439     Ni1446   1.890       .  S
O1440     Ni1441   1.928       .  S
Ni1441     O1445   1.922       .  S
Ni1441     O1443   1.925       .  S
O1442     Ni1447   1.935       .  S
C1444      O1445   1.268       .  A
C1444      C1838   1.475       .  S
O1449     Ni1455   1.922       .  S
O1449      C1470   1.267       .  A
O1450     Ni1473   1.916       .  S
O1450      C1459   1.271       .  A
O1451     Ni1455   1.898       .  S
O1451     Ni1473   1.907       .  S
O1451     Ni1467   1.919       .  S
O1451      H1474   0.966       .  S
C1452      O1469   1.282       .  A
C1452      O1461   1.280       .  A
C1452      C1991   1.484       .  S
O1453     Ni1472   1.932       .  S
O1453      C1459   1.274       .  A
O1454     Ni1472   1.907       .  S
O1454      C1456   1.269       .  A
Ni1455     O1458   1.927       .  S
Ni1455     O1460   1.895       .  S
C1456      O1466   1.270       .  A
C1456      C1891   1.480       .  S
O1457     Ni1473   1.916       .  S
C1459      C1818   1.482       .  S
O1460      C1462   1.268       .  A
O1461     Ni1472   1.920       .  S
C1462      O1468   1.275       .  A
C1462      C1881   1.483       .  S
C1463      C1981   1.483       .  S
H1464      O1465   0.966       .  S
O1465     Ni1473   1.908       .  S
O1465     Ni1467   1.901       .  S
O1465     Ni1472   1.890       .  S
O1466     Ni1467   1.923       .  S
Ni1467     O1471   1.920       .  S
Ni1467     O1469   1.930       .  S
O1468     Ni1473   1.940       .  S
C1470      O1471   1.268       .  A
C1470      C1828   1.467       .  S
O1475     Ni1481   1.922       .  S
O1475      C1496   1.267       .  A
O1476     Ni1499   1.915       .  S
O1476      C1485   1.270       .  A
O1477     Ni1481   1.900       .  S
O1477     Ni1499   1.911       .  S
O1477     Ni1493   1.916       .  S
O1477      H1500   0.966       .  S
C1478      O1495   1.281       .  A
C1478      O1487   1.280       .  A
C1478      C1851   1.485       .  S
O1479     Ni1498   1.937       .  S
O1479      C1485   1.275       .  A
O1480     Ni1498   1.912       .  S
O1480      C1482   1.271       .  A
Ni1481     O1484   1.922       .  S
Ni1481     O1486   1.900       .  S
C1482      O1492   1.271       .  A
C1482      C1941   1.482       .  S
O1483     Ni1499   1.916       .  S
C1485      C1821   1.485       .  S
O1486      C1488   1.268       .  A
O1487     Ni1498   1.922       .  S
C1488      O1494   1.274       .  A
C1488      C1951   1.484   1_545  S
C1489      C1861   1.477       .  S
H1490      O1491   0.965       .  S
O1491     Ni1499   1.908       .  S
O1491     Ni1493   1.906       .  S
O1491     Ni1498   1.893       .  S
O1492     Ni1493   1.923       .  S
Ni1493     O1497   1.923       .  S
Ni1493     O1495   1.931       .  S
O1494     Ni1499   1.937       .  S
C1496      O1497   1.268       .  A
C1496      C1808   1.469       .  S
O1501     Ni1507   1.923       .  S
O1501      C1522   1.268       .  A
O1502     Ni1525   1.911       .  S
O1502      C1511   1.269       .  A
O1503     Ni1507   1.895       .  S
O1503     Ni1525   1.907       .  S
O1503     Ni1519   1.916       .  S
O1503      H1526   0.966       .  S
C1504      O1521   1.282       .  A
C1504      O1513   1.280       .  A
C1504      C1781   1.483       .  S
O1505     Ni1524   1.930       .  S
O1505      C1511   1.274       .  A
O1506     Ni1524   1.907       .  S
O1506      C1508   1.269       .  A
Ni1507     O1510   1.925       .  S
Ni1507     O1512   1.897       .  S
C1508      O1518   1.270       .  A
C1508      C1768   1.482       .  S
O1509     Ni1525   1.913       .  S
O1509      C1515   1.275       .  A
O1510      C1515   1.278       .  A
C1511      C1801   1.479       .  S
O1512      C1514   1.268       .  A
O1513     Ni1524   1.917       .  S
C1514      O1520   1.275       .  A
C1514      C1758   1.487       .  S
C1515      C1788   1.479       .  S
H1516      O1517   0.966       .  S
O1517     Ni1525   1.903       .  S
O1517     Ni1519   1.902       .  S
O1517     Ni1524   1.889       .  S
O1518     Ni1519   1.925       .  S
Ni1519     O1523   1.922       .  S
Ni1519     O1521   1.931       .  S
O1520     Ni1525   1.941       .  S
C1522      O1523   1.268       .  A
C1522      C1831   1.469       .  S
O1527     Ni1533   1.910       .  S
O1527      C1548   1.265       .  A
O1528     Ni1551   1.911       .  S
O1528      C1537   1.268       .  A
O1529     Ni1533   1.897       .  S
O1529     Ni1551   1.906       .  S
O1529     Ni1545   1.928       .  S
O1529      H1552   0.966       .  S
C1530      O1547   1.284       .  A
C1530      O1539   1.279       .  A
C1530      C1738   1.485       .  S
O1531     Ni1550   1.928       .  S
O1531      C1537   1.274       .  A
O1532     Ni1550   1.910       .  S
O1532      C1534   1.270       .  A
Ni1533     O1536   1.924       .  S
Ni1533     O1538   1.897       .  S
C1534      O1544   1.270       .  A
C1534      C1718   1.483       .  S
O1535     Ni1551   1.919       .  S
O1535      C1541   1.276       .  A
O1536      C1541   1.278       .  A
C1537      C1798   1.481       .  S
O1538      C1540   1.268       .  A
O1539     Ni1550   1.914       .  S
C1540      O1546   1.273       .  A
C1540      C1728   1.481   1_545  S
C1541      C1748   1.481       .  S
H1542      O1543   0.966       .  S
O1543     Ni1551   1.909       .  S
O1543     Ni1545   1.905       .  S
O1543     Ni1550   1.890       .  S
O1544     Ni1545   1.923       .  S
Ni1545     O1549   1.929       .  S
Ni1545     O1547   1.938       .  S
O1546     Ni1551   1.933       .  S
C1548      O1549   1.268       .  A
C1548      C1841   1.469       .  S
O1553     Ni1559   1.926       .  S
O1553      C1574   1.269       .  A
O1554     Ni1577   1.914       .  S
O1554      C1563   1.269       .  A
O1555     Ni1559   1.904       .  S
O1555     Ni1577   1.918       .  S
O1555     Ni1571   1.920       .  S
O1555      H1578   0.965       .  S
C1556      O1573   1.282       .  A
C1556      O1565   1.280       .  A
C1556      C1708   1.488       .  S
O1557     Ni1576   1.933       .  S
O1557      C1563   1.274       .  A
O1558     Ni1576   1.907       .  S
O1558      C1560   1.269       .  A
Ni1559     O1562   1.926       .  S
Ni1559     O1564   1.898       .  S
C1560      O1570   1.270       .  A
C1560      C1778   1.478       .  S
O1561     Ni1577   1.914       .  S
C1563      C1688   1.483       .  S
O1564      C1566   1.269       .  A
O1565     Ni1576   1.921       .  S
C1566      O1572   1.276       .  A
C1566      C1791   1.484       .  S
C1567      C1698   1.481       .  S
H1568      O1569   0.966       .  S
O1569     Ni1577   1.904       .  S
O1569     Ni1571   1.902       .  S
O1569     Ni1576   1.894       .  S
O1570     Ni1571   1.922       .  S
Ni1571     O1575   1.916       .  S
Ni1571     O1573   1.933       .  S
O1572     Ni1577   1.943       .  S
C1574      O1575   1.268       .  A
C1574      C1901   1.468       .  S
O1579     Ni1585   1.922       .  S
O1579      C1600   1.269       .  A
O1580     Ni1603   1.916       .  S
O1580      C1589   1.269       .  A
O1581     Ni1585   1.904       .  S
O1581     Ni1603   1.916       .  S
O1581     Ni1597   1.925       .  S
O1581      H1604   0.965       .  S
C1582      O1599   1.284       .  A
C1582      O1591   1.278       .  A
C1582      C1721   1.487       .  S
O1583     Ni1602   1.927       .  S
O1583      C1589   1.272       .  A
O1584     Ni1602   1.907       .  S
O1584      C1586   1.269       .  A
Ni1585     O1588   1.925       .  S
Ni1585     O1590   1.897       .  S
C1586      O1596   1.271       .  A
C1586      C1678   1.483       .  S
O1587     Ni1603   1.911       .  S
C1589      C1691   1.481       .  S
O1590      C1592   1.269       .  A
O1591     Ni1602   1.913       .  S
C1592      O1598   1.276       .  A
C1592      C1668   1.482       .  S
C1593      C1731   1.479       .  S
H1594      O1595   0.966       .  S
O1595     Ni1603   1.904       .  S
O1595     Ni1597   1.903       .  S
O1595     Ni1602   1.893       .  S
O1596     Ni1597   1.925       .  S
Ni1597     O1601   1.924       .  S
Ni1597     O1599   1.939       .  S
O1598     Ni1603   1.938       .  S
C1600      O1601   1.270       .  A
C1600      C1911   1.471       .  S
O1605     Ni1611   1.925       .  S
O1605      C1626   1.268       .  A
O1606     Ni1629   1.917       .  S
O1606      C1615   1.268       .  A
O1607     Ni1611   1.905       .  S
O1607     Ni1629   1.918       .  S
O1607     Ni1623   1.920       .  S
O1607      H1630   0.966       .  S
C1608      O1625   1.282       .  A
C1608      O1617   1.279       .  A
C1608      C1771   1.485       .  S
O1609     Ni1628   1.929       .  S
O1609      C1615   1.273       .  A
O1610     Ni1628   1.906       .  S
O1610      C1612   1.269       .  A
Ni1611     O1614   1.924       .  S
Ni1611     O1616   1.899       .  S
C1612      O1622   1.272       .  A
C1612      C1711   1.485       .  S
O1613     Ni1629   1.911       .  S
O1613      C2291   1.272       .  A
O1614      C2291   1.276       .  A
C1615      C1658   1.482       .  S
O1616      C1618   1.269       .  A
O1617     Ni1628   1.915       .  S
C1618      O1624   1.275       .  A
C1618      C1701   1.486       .  S
C1619      O2285   1.272   1_545  A
C1619      O2286   1.276   1_545  A
C1619      C1761   1.481       .  S
H1620      O1621   0.966       .  S
O1621     Ni1629   1.903       .  S
O1621     Ni1623   1.907       .  S
O1621     Ni1628   1.893       .  S
O1622     Ni1623   1.931       .  S
Ni1623     O1627   1.927       .  S
Ni1623     O1625   1.933       .  S
O1624     Ni1629   1.939       .  S
C1626      O1627   1.270       .  A
C1626      C1961   1.474       .  S
O1631     Ni1637   1.930       .  S
O1631      C1652   1.270       .  A
O1632     Ni1655   1.919       .  S
O1632      C1641   1.270       .  A
O1633     Ni1637   1.901       .  S
O1633     Ni1655   1.916       .  S
O1633     Ni1649   1.915       .  S
O1633      H1656   0.966       .  S
C1634      O1651   1.282       .  A
C1634      O1643   1.278       .  A
C1634      C1681   1.486       .  S
O1635     Ni1654   1.923       .  S
O1635      C1641   1.272       .  A
O1636     Ni1654   1.907       .  S
O1636      C1638   1.269       .  A
Ni1637     O1640   1.930       .  S
Ni1637     O1642   1.899       .  S
C1638      O1648   1.269       .  A
C1638      C1741   1.478       .  S
O1639     Ni1655   1.913       .  S
O1639      C2317   1.274   1_545  A
O1640      C2317   1.278   1_545  A
C1641      C1661   1.483       .  S
O1642      C1644   1.268       .  A
O1643     Ni1654   1.915       .  S
C1644      O1650   1.275       .  A
C1644      C1751   1.484   1_655  S
C1645      O2311   1.273       .  A
C1645      O2312   1.278       .  A
C1645      C1671   1.475       .  S
H1646      O1647   0.966       .  S
O1647     Ni1655   1.908       .  S
O1647     Ni1649   1.904       .  S
O1647     Ni1654   1.893       .  S
O1648     Ni1649   1.921       .  S
Ni1649     O1653   1.917       .  S
Ni1649     O1651   1.934       .  S
O1650     Ni1655   1.941       .  S
C1652      O1653   1.268       .  A
C1652      C1811   1.471       .  S
C1657      C1658   1.403       .  A
C1657      C2334   1.390   1_554  A
C1657      H1663   1.083       .  S
C1658      C1659   1.408       .  A
C1659      C2332   1.409   1_554  A
C1659      H1664   1.083       .  S
C1660      C2331   1.407   1_546  A
C1660      C1661   1.408       .  A
C1660      H1665   1.083       .  S
C1661      C1662   1.406       .  A
C1662      C2329   1.391   1_546  A
C1662      H1666   1.083       .  S
C1667      C1668   1.408       .  A
C1667      C1672   1.394       .  A
C1667      H1673   1.083       .  S
C1668      C1669   1.406       .  A
C1669      C1670   1.401       .  A
C1669      H1674   1.083       .  S
C1670      C1671   1.405       .  A
C1670      H1675   1.083       .  S
C1671      C1672   1.402       .  A
C1672      H1676   1.083       .  S
C1677      C1678   1.408       .  A
C1677      C1682   1.403       .  A
C1677      H1683   1.083       .  S
C1678      C1679   1.404       .  A
C1679      C1680   1.394       .  A
C1679      H1684   1.083       .  S
C1680      C1681   1.407       .  A
C1680      H1685   1.083       .  S
C1681      C1682   1.407       .  A
C1682      H1686   1.083       .  S
C1687      C1688   1.404       .  A
C1687      H1693   1.083       .  S
C1688      C1689   1.408       .  A
C1689      H1694   1.083       .  S
C1690      C1691   1.407       .  A
C1690      H1695   1.083       .  S
C1691      C1692   1.404       .  A
C1692      H1696   1.083       .  S
C1697      C1698   1.407       .  A
C1697      C1702   1.405       .  A
C1697      H1703   1.083       .  S
C1698      C1699   1.403       .  A
C1699      C1700   1.393       .  A
C1700      C1701   1.407       .  A
C1700      H1705   1.083       .  S
C1701      C1702   1.408       .  A
C1702      H1706   1.083       .  S
C1707      C1708   1.407       .  A
C1707      C1712   1.395       .  A
C1707      H1713   1.083       .  S
C1708      C1709   1.408       .  A
C1709      C1710   1.404       .  A
C1709      H1714   1.083       .  S
C1710      C1711   1.408       .  A
C1710      H1715   1.083       .  S
C1711      C1712   1.405       .  A
C1712      H1716   1.083       .  S
C1717      C1718   1.408       .  A
C1717      C1722   1.403       .  A
C1717      H1723   1.083       .  S
C1718      C1719   1.403       .  A
C1719      C1720   1.394       .  A
C1719      H1724   1.083       .  S
C1720      C1721   1.409       .  A
C1720      H1725   1.083       .  S
C1721      C1722   1.406       .  A
C1722      H1726   1.083       .  S
C1727      C2400   1.407       .  A
C1727      C1732   1.395       .  A
C1727      H2405   1.083       .  S
C1728      C2399   1.406       .  A
C1728      C2401   1.406       .  A
C1729      C2400   1.406       .  A
C1729      C1730   1.403       .  A
C1729      H1734   1.083       .  S
C1730      C1731   1.407       .  A
C1730      H1735   1.083       .  S
C1731      C1732   1.403       .  A
H1733      C2399   1.083       .  S
C1737      C1738   1.406       .  A
C1737      C1742   1.403       .  A
C1737      H1743   1.083       .  S
C1738      C1739   1.408       .  A
C1739      C1740   1.393       .  A
C1739      H1744   1.083       .  S
C1740      C1741   1.402       .  A
C1740      H1745   1.083       .  S
C1741      C1742   1.407       .  A
C1742      H1746   1.083       .  S
C1747      C1748   1.408       .  A
C1747      C1752   1.403       .  A
C1747      H1753   1.083       .  S
C1748      C1749   1.403       .  A
C1749      C1750   1.395       .  A
C1749      H1754   1.083       .  S
C1750      H1755   1.083       .  S
C1757      C1762   1.406       .  A
C1759      C1760   1.393       .  A
C1759      H1764   1.083       .  S
C1760      C1761   1.403       .  A
C1760      H1765   1.083       .  S
C1761      C1762   1.407       .  A
C1762      H2438   1.083       .  S
H1766      C2434   1.083       .  S
C1767      C1768   1.408       .  A
C1767      C1772   1.403       .  A
C1767      H1773   1.083       .  S
C1768      C1769   1.403       .  A
C1769      C1770   1.393       .  A
C1769      H1774   1.083       .  S
C1770      C1771   1.408       .  A
C1770      H1775   1.083       .  S
C1771      C1772   1.406       .  A
C1772      H1776   1.083       .  S
C1777      C1778   1.402       .  A
C1777      C1782   1.394       .  A
C1777      H1783   1.083       .  S
C1778      C1779   1.407       .  A
C1779      C1780   1.401       .  A
C1779      H1784   1.083       .  S
C1780      C1781   1.406       .  A
C1780      H1785   1.083       .  S
C1781      C1782   1.407       .  A
C1782      H1786   1.083       .  S
C1787      C1788   1.408       .  A
C1787      C1792   1.402       .  A
C1787      H1793   1.083       .  S
C1788      C1789   1.402       .  A
C1789      C1790   1.393       .  A
C1789      H1794   1.083       .  S
C1790      C2463   1.407   1_545  A
C1790      H1795   1.083       .  S
C1791      C2462   1.407       .  A
C1791      C2464   1.407       .  A
C1792      C2463   1.406   1_545  A
C1792      H2468   1.083   1_545  S
H1796      C2464   1.083       .  S
C1797      C1798   1.407       .  A
C1797      C1802   1.407   1_556  A
C1797      H1803   1.083       .  S
C1798      C1799   1.404       .  A
C1799      C1800   1.390   1_556  A
C1799      H1804   1.083       .  S
C1800      C1801   1.403       .  A
C1800      H1805   1.083       .  S
C1801      C1802   1.407       .  A
C1802      H1806   1.083       .  S
C1807      C1808   1.403       .  A
C1807      C1812   1.403       .  A
C1807      H1813   1.083       .  S
C1808      C1809   1.403       .  A
C1809      C1810   1.398       .  A
C1809      H1814   1.084       .  S
C1810      C1811   1.402       .  A
C1810      H1815   1.083       .  S
C1811      C1812   1.404       .  A
C1812      H1816   1.083       .  S
C1817      C1822   1.396   1_455  A
C1817      H1823   1.083       .  S
C1818      C1819   1.406       .  A
C1819      C1820   1.407       .  A
C1819      H1824   1.083       .  S
C1820      H1825   1.083       .  S
C1821      C1822   1.405       .  A
C1822      H1826   1.083       .  S
C1827      C1828   1.403       .  A
C1827      C1832   1.404       .  A
C1827      H1833   1.083       .  S
C1828      C1829   1.401       .  A
C1829      C1830   1.395       .  A
C1829      H1834   1.084       .  S
C1830      C1831   1.402       .  A
C1830      H1835   1.084       .  S
C1831      C1832   1.405       .  A
C1832      H1836   1.083       .  S
C1837      C1838   1.403       .  A
C1837      C1842   1.392       .  A
C1837      H1843   1.084       .  S
C1838      C1839   1.407       .  A
C1839      C1840   1.407       .  A
C1839      H1844   1.083       .  S
C1840      C1841   1.404       .  A
C1840      H1845   1.083       .  S
C1841      C1842   1.401       .  A
C1842      H1846   1.084       .  S
C1847      C1848   1.407       .  A
C1847      C1852   1.403       .  A
C1847      H1853   1.083       .  S
C1848      C1849   1.404       .  A
C1849      C1850   1.395       .  A
C1849      H1854   1.083       .  S
C1850      C1851   1.407       .  A
C1850      H1855   1.083       .  S
C1851      C1852   1.408       .  A
C1852      H1856   1.083       .  S
C1857      C1858   1.406       .  A
C1857      C1862   1.392       .  A
C1857      H1863   1.083       .  S
C1858      C1859   1.406       .  A
C1859      C1860   1.402       .  A
C1859      H1864   1.083       .  S
C1860      C1861   1.407       .  A
C1861      C1862   1.403       .  A
C1862      H1866   1.083       .  S
C1867      C1868   1.406       .  A
C1867      C2544   1.407       .  A
C1867      H1873   1.083       .  S
C1868      C1869   1.403       .  A
C1869      C1870   1.392       .  A
C1869      H1874   1.084       .  S
C1870      C2543   1.405       .  A
C1870      H1875   1.083       .  S
C1871      C2542   1.406       .  A
C1871      C1872   1.409       .  A
C1872      C2539   1.407   1_545  A
C1872      H1876   1.083       .  S
C1877      C1878   1.408       .  A
C1877      C1882   1.402       .  A
C1877      H2555   1.083       .  S
C1878      C1879   1.403       .  A
C1879      C1880   1.393       .  A
C1879      H1884   1.083       .  S
C1880      C1881   1.408       .  A
C1880      H1885   1.083       .  S
C1881      C1882   1.406       .  A
C1882      H1886   1.083       .  S
H1883      C2549   1.083       .  S
C1887      C1888   1.406       .  A
C1887      C1892   1.393       .  A
C1887      H1893   1.083       .  S
C1888      C1889   1.408       .  A
C1889      C1890   1.402       .  A
C1889      H1894   1.083       .  S
C1890      C1891   1.407       .  A
C1890      H1895   1.083       .  S
C1891      C1892   1.403       .  A
C1892      H1896   1.083       .  S
C1897      C1898   1.402       .  A
C1897      C1902   1.401       .  A
C1897      H1903   1.083       .  S
C1898      C1899   1.403       .  A
C1899      C1900   1.399       .  A
C1899      H1904   1.084       .  S
C1900      C1901   1.402       .  A
C1900      H1905   1.083       .  S
C1901      C1902   1.404       .  A
C1902      H1906   1.083       .  S
C1907      C1908   1.404       .  A
C1907      C1912   1.398       .  A
C1907      H1913   1.084       .  S
C1908      C1909   1.403       .  A
C1909      C1910   1.404       .  A
C1909      H1914   1.083       .  S
C1910      C1911   1.406       .  A
C1910      H1915   1.083       .  S
C1911      C1912   1.401       .  A
C1912      H1916   1.084       .  S
C1917      C1918   1.406       .  A
C1917      C1922   1.401       .  A
C1917      H1923   1.083       .  S
C1918      C1919   1.406       .  A
C1919      C1920   1.392       .  A
C1919      H1924   1.083       .  S
C1920      C1921   1.403       .  A
C1920      H1925   1.083       .  S
C1921      C1922   1.407       .  A
C1922      H1926   1.083       .  S
C1927      C1928   1.407       .  A
C1927      C1932   1.402       .  A
C1927      H1933   1.083       .  S
C1928      C1929   1.403       .  A
C1929      C1930   1.395       .  A
C1929      H1934   1.083       .  S
C1932      H1936   1.083       .  S
C1937      C1938   1.409       .  A
C1937      C1942   1.395       .  A
C1937      H1943   1.083       .  S
C1938      C1939   1.407       .  A
C1939      C1940   1.403       .  A
C1939      H1944   1.083       .  S
C1940      C1941   1.408       .  A
C1940      H1945   1.083       .  S
C1941      C1942   1.403       .  A
C1942      H1946   1.083       .  S
C1947      C1948   1.400       .  A
C1947      C1952   1.390       .  A
C1947      H1953   1.084       .  S
C1948      C1949   1.405       .  A
C1949      C1950   1.403       .  A
C1949      H1954   1.083       .  S
C1950      C2623   1.407       .  A
C1950      H1955   1.083       .  S
C1951      C2622   1.408       .  A
C1951      C2624   1.406       .  A
C1952      C2623   1.406       .  A
C1952      H2628   1.083       .  S
H1956      C2624   1.083       .  S
C1957      C1958   1.403       .  A
C1957      C1962   1.404       .  A
C1957      H1963   1.083       .  S
C1958      C1959   1.404       .  A
C1959      C1960   1.400       .  A
C1959      H1964   1.084       .  S
C1960      C1961   1.403       .  A
C1960      H1965   1.083       .  S
C1961      C1962   1.405       .  A
C1962      H1966   1.083       .  S
C1967      C1968   1.406       .  A
C1967      C1972   1.395       .  A
C1967      H1973   1.083       .  S
C1968      C1969   1.409       .  A
C1969      C1970   1.410       .  A
C1969      H1974   1.083       .  S
C1970      C1971   1.408       .  A
C1970      H1975   1.083       .  S
C1971      C1972   1.404       .  A
C1972      H1976   1.083       .  S
C1977      C2650   1.407       .  A
C1977      C1982   1.403       .  A
C1977      H1983   1.083       .  S
C1978      C2649   1.407       .  A
C1978      C1979   1.408       .  A
C1979      C2652   1.395       .  A
C1979      H1984   1.083       .  S
C1980      C2651   1.395       .  A
C1980      C1981   1.404       .  A
C1980      H1985   1.083       .  S
C1981      C1982   1.407       .  A
C1982      H1986   1.083       .  S
C1987      C1988   1.403       .  A
C1987      C1992   1.396       .  A
C1987      H1993   1.083       .  S
C1988      C1989   1.406       .  A
C1989      C1990   1.399       .  A
C1989      H1994   1.083       .  S
C1990      C1991   1.406       .  A
C1990      H1995   1.083       .  S
C1991      C1992   1.408       .  A
C1992      H1996   1.083       .  S
C1997      C1998   1.401       .  A
C1997      C2002   1.392       .  A
C1997      H2003   1.083       .  S
C1998      C1999   1.406       .  A
C1999      C2000   1.403       .  A
C1999      H2004   1.083       .  S
C2002      H2006   1.083       .  S
C2007      C2008   1.403       .  A
C2007      C2012   1.393       .  A
C2007      H2013   1.083       .  S
C2008      C2009   1.407       .  A
C2009      C2010   1.402       .  A
C2009      H2014   1.083       .  S
C2010      C2011   1.407       .  A
C2010      H2015   1.083       .  S
C2011      C2012   1.407       .  A
C2012      H2016   1.083       .  S
O2017     Ni2023   1.923       .  S
O2017      C2038   1.269       .  A
O2018     Ni2041   1.912       .  S
O2018      C2027   1.267       .  A
O2019     Ni2023   1.906       .  S
O2019     Ni2041   1.921       .  S
O2019     Ni2035   1.920       .  S
O2019      H2042   0.966       .  S
C2020      O2037   1.279       .  A
C2020      O2029   1.279       .  A
C2020      C2683   1.482       .  S
O2021     Ni2040   1.933       .  S
O2021      C2027   1.274       .  A
O2022     Ni2040   1.912       .  S
O2022      C2024   1.269       .  A
Ni2023     O2026   1.917       .  S
Ni2023     O2028   1.901       .  S
C2024      O2034   1.269       .  A
C2024      C2660   1.483       .  S
O2025     Ni2041   1.910       .  S
O2025      C2031   1.269       .  A
O2026      C2031   1.272       .  A
C2027      C2640   1.478       .  S
O2028      C2030   1.271       .  A
O2029     Ni2040   1.921       .  S
C2030      O2036   1.278       .  A
C2030      C2650   1.486   1_565  S
C2031      C2670   1.474       .  S
H2032      O2033   0.966       .  S
O2033     Ni2041   1.899       .  S
O2033     Ni2035   1.902       .  S
O2033     Ni2040   1.901       .  S
O2034     Ni2035   1.920       .  S
Ni2035     O2039   1.912       .  S
Ni2035     O2037   1.922       .  S
O2036     Ni2041   1.947       .  S
C2038      O2039   1.266       .  A
C2038      C2630   1.468       .  S
O2043     Ni2049   1.926       .  S
O2043      C2064   1.269       .  A
O2044     Ni2067   1.913       .  S
O2044      C2053   1.269       .  A
O2045     Ni2049   1.903       .  S
O2045     Ni2067   1.916       .  S
O2045     Ni2061   1.918       .  S
O2045      H2068   0.967       .  S
C2046      O2063   1.281       .  A
C2046      O2055   1.279       .  A
C2046      C2610   1.484       .  S
O2047     Ni2066   1.931       .  S
O2047      C2053   1.274       .  A
O2048     Ni2066   1.910       .  S
O2048      C2050   1.270       .  A
Ni2049     O2052   1.923       .  S
Ni2049     O2054   1.898       .  S
C2050      O2060   1.270       .  A
C2050      C2593   1.484       .  S
O2051     Ni2067   1.914       .  S
O2051      C2057   1.273       .  A
O2052      C2057   1.275       .  A
C2053      C2643   1.484       .  S
O2054      C2056   1.269       .  A
O2055     Ni2066   1.919       .  S
C2056      O2062   1.275       .  A
C2056      C2603   1.485   1_655  S
C2057      C2620   1.479       .  S
H2058      O2059   0.966       .  S
O2059     Ni2067   1.904       .  S
O2059     Ni2061   1.902       .  S
O2059     Ni2066   1.894       .  S
O2060     Ni2061   1.925       .  S
Ni2061     O2065   1.915       .  S
Ni2061     O2063   1.929       .  S
O2062     Ni2067   1.941       .  S
C2064      O2065   1.267       .  A
C2064      C2580   1.467       .  S
O2069     Ni2075   1.917       .  S
O2069      C2090   1.265       .  A
O2070     Ni2093   1.910       .  S
O2070      C2079   1.266       .  A
O2071     Ni2075   1.898       .  S
O2071     Ni2093   1.905       .  S
O2071     Ni2087   1.918       .  S
O2071      H2094   0.966       .  S
C2072      O2089   1.281       .  A
C2072      O2081   1.280       .  A
C2072      C2560   1.486       .  S
O2073     Ni2092   1.933       .  S
O2073      C2079   1.273       .  A
O2074     Ni2092   1.902       .  S
O2074      C2076   1.268       .  A
Ni2075     O2078   1.924       .  S
Ni2075     O2080   1.896       .  S
C2076      O2086   1.271       .  A
C2076      C2680   1.478       .  S
O2077     Ni2093   1.914       .  S
C2079      C2540   1.477       .  S
O2080      C2082   1.268       .  A
O2081     Ni2092   1.923       .  S
C2082      O2088   1.271       .  A
C2082      C2673   1.481       .  S
C2083      C2550   1.478       .  S
H2084      O2085   0.966       .  S
O2085     Ni2093   1.910       .  S
O2085     Ni2087   1.908       .  S
O2085     Ni2092   1.894       .  S
O2086     Ni2087   1.926       .  S
Ni2087     O2091   1.926       .  S
Ni2087     O2089   1.928       .  S
O2088     Ni2093   1.931       .  S
C2090      O2091   1.269       .  A
C2090      C2570   1.469       .  S
O2095     Ni2101   1.924       .  S
O2095      C2116   1.269       .  A
O2096     Ni2119   1.914       .  S
O2096      C2105   1.268       .  A
O2097     Ni2101   1.898       .  S
O2097     Ni2119   1.911       .  S
O2097     Ni2113   1.916       .  S
O2097      H2120   0.966       .  S
C2098      O2115   1.282       .  A
C2098      O2107   1.278       .  A
C2098      C2590   1.487       .  S
O2099     Ni2118   1.930       .  S
O2099      C2105   1.273       .  A
O2100     Ni2118   1.902       .  S
O2100      C2102   1.269       .  A
Ni2101     O2104   1.926       .  S
Ni2101     O2106   1.896       .  S
C2102      O2112   1.271       .  A
C2102      C2520   1.478       .  S
O2103     Ni2119   1.914       .  S
C2105      C2543   1.484       .  S
O2106      C2108   1.268       .  A
O2107     Ni2118   1.917       .  S
C2108      O2114   1.272       .  A
C2108      C2530   1.483       .  S
C2109      C2600   1.483       .  S
H2110      O2111   0.966       .  S
O2111     Ni2119   1.909       .  S
O2111     Ni2113   1.910       .  S
O2111     Ni2118   1.892       .  S
O2112     Ni2113   1.925       .  S
Ni2113     O2117   1.928       .  S
Ni2113     O2115   1.934       .  S
O2114     Ni2119   1.935       .  S
C2116      O2117   1.270       .  A
C2116      C2510   1.478       .  S
O2121     Ni2127   1.918       .  S
O2121      C2142   1.266       .  A
O2122     Ni2145   1.910       .  S
O2122      C2131   1.268       .  A
O2123     Ni2127   1.898       .  S
O2123     Ni2145   1.905       .  S
O2123     Ni2139   1.925       .  S
O2123      H2146   0.966       .  S
C2124      O2141   1.283       .  A
C2124      O2133   1.280       .  A
C2124      C2663   1.486       .  S
O2125     Ni2144   1.929       .  S
O2125      C2131   1.273       .  A
O2126     Ni2144   1.907       .  S
O2126      C2128   1.269       .  A
Ni2127     O2130   1.928       .  S
Ni2127     O2132   1.894       .  S
C2128      O2138   1.271       .  A
C2128      C2563   1.482       .  S
O2129     Ni2145   1.923       .  S
C2131      C2490   1.475       .  S
O2132      C2134   1.267       .  A
O2133     Ni2144   1.919       .  S
C2134      O2140   1.273       .  A
C2134      C2553   1.481       .  S
C2135      C2653   1.487       .  S
H2136      O2137   0.966       .  S
O2137     Ni2145   1.911       .  S
O2137     Ni2139   1.900       .  S
O2137     Ni2144   1.890       .  S
O2138     Ni2139   1.925       .  S
Ni2139     O2143   1.923       .  S
Ni2139     O2141   1.933       .  S
O2140     Ni2145   1.933       .  S
C2142      O2143   1.268       .  A
C2142      C2500   1.466       .  S
O2147     Ni2153   1.920       .  S
O2147      C2168   1.266       .  A
O2148     Ni2171   1.909       .  S
O2148      C2157   1.268       .  A
O2149     Ni2153   1.897       .  S
O2149     Ni2171   1.911       .  S
O2149     Ni2165   1.913       .  S
O2149      H2172   0.966       .  S
C2150      O2167   1.279       .  A
C2150      O2159   1.279       .  A
C2150      C2523   1.483       .  S
O2151     Ni2170   1.931       .  S
O2151      C2157   1.274       .  A
O2152     Ni2170   1.908       .  S
O2152      C2154   1.269       .  A
Ni2153     O2156   1.919       .  S
Ni2153     O2158   1.894       .  S
C2154      O2164   1.270       .  A
C2154      C2613   1.480       .  S
O2155     Ni2171   1.920       .  S
C2157      C2493   1.481       .  S
O2158      C2160   1.267       .  A
O2159     Ni2170   1.919       .  S
C2160      O2166   1.272       .  A
C2160      C2623   1.480       .  S
C2161      C2533   1.480       .  S
H2162      O2163   0.966       .  S
O2163     Ni2171   1.909       .  S
O2163     Ni2165   1.906       .  S
O2163     Ni2170   1.894       .  S
O2164     Ni2165   1.922       .  S
Ni2165     O2169   1.920       .  S
Ni2165     O2167   1.926       .  S
O2166     Ni2171   1.934       .  S
C2168      O2169   1.267       .  A
C2168      C2480   1.466       .  S
O2173     Ni2179   1.923       .  S
O2173      C2194   1.268       .  A
O2174     Ni2197   1.911       .  S
O2174      C2183   1.268       .  A
O2175     Ni2179   1.898       .  S
O2175     Ni2197   1.908       .  S
O2175     Ni2191   1.914       .  S
O2175      H2198   0.966       .  S
C2176      O2193   1.281       .  A
C2176      O2185   1.281       .  A
C2176      C2453   1.487       .  S
O2177     Ni2196   1.939       .  S
O2177      C2183   1.276       .  A
O2178     Ni2196   1.908       .  S
O2178      C2180   1.270       .  A
Ni2179     O2182   1.926       .  S
Ni2179     O2184   1.895       .  S
C2180      O2190   1.272       .  A
C2180      C2440   1.483       .  S
O2181     Ni2197   1.915       .  S
O2181      C2187   1.275       .  A
O2182      C2187   1.278       .  A
C2183      C2473   1.482       .  S
O2184      C2186   1.267       .  A
O2185     Ni2196   1.926       .  S
C2186      O2192   1.273       .  A
C2186      C2430   1.482       .  S
C2187      C2460   1.479       .  S
H2188      O2189   0.966       .  S
O2189     Ni2197   1.907       .  S
O2189     Ni2191   1.904       .  S
O2189     Ni2196   1.891       .  S
O2190     Ni2191   1.927       .  S
Ni2191     O2195   1.922       .  S
Ni2191     O2193   1.931       .  S
O2192     Ni2197   1.936       .  S
C2194      O2195   1.268       .  A
C2194      C2503   1.471       .  S
O2199     Ni2205   1.913       .  S
O2199      C2220   1.265       .  A
O2200     Ni2223   1.915       .  S
O2200      C2209   1.270       .  A
O2201     Ni2205   1.897       .  S
O2201     Ni2223   1.907       .  S
O2201     Ni2217   1.922       .  S
O2201      H2224   0.966       .  S
C2202      O2219   1.281       .  A
C2202      O2211   1.280       .  A
C2202      C2410   1.486       .  S
O2203     Ni2222   1.935       .  S
O2203      C2209   1.275       .  A
O2204     Ni2222   1.909       .  S
O2204      C2206   1.270       .  A
Ni2205     O2208   1.922       .  S
Ni2205     O2210   1.900       .  S
C2206      O2216   1.269       .  A
C2206      C2390   1.478       .  S
O2207     Ni2223   1.924       .  S
O2207      C2213   1.278       .  A
O2208      C2213   1.278       .  A
C2209      C2470   1.486       .  S
O2210      C2212   1.268       .  A
O2211     Ni2222   1.922       .  S
C2212      O2218   1.274       .  A
C2212      C2400   1.483       .  S
C2213      C2420   1.481       .  S
H2214      O2215   0.966       .  S
O2215     Ni2223   1.914       .  S
O2215     Ni2217   1.908       .  S
O2215     Ni2222   1.894       .  S
O2216     Ni2217   1.920       .  S
Ni2217     O2221   1.929       .  S
Ni2217     O2219   1.930       .  S
O2218     Ni2223   1.938       .  S
C2220      O2221   1.268       .  A
C2220      C2513   1.471       .  S
O2225     Ni2231   1.927       .  S
O2225      C2246   1.269       .  A
O2226     Ni2249   1.919       .  S
O2226      C2235   1.270       .  A
O2227     Ni2231   1.902       .  S
O2227     Ni2249   1.913       .  S
O2227     Ni2243   1.919       .  S
O2227      H2250   0.966       .  S
C2228      O2245   1.282       .  A
C2228      O2237   1.280       .  A
C2228      C2380   1.489       .  S
O2229     Ni2248   1.928       .  S
O2229      C2235   1.273       .  A
O2230     Ni2248   1.906       .  S
O2230      C2232   1.269       .  A
Ni2231     O2234   1.928       .  S
Ni2231     O2236   1.897       .  S
C2232      O2242   1.272       .  A
C2232      C2450   1.482       .  S
O2233     Ni2249   1.916       .  S
C2235      C2360   1.484       .  S
O2236      C2238   1.268       .  A
O2237     Ni2248   1.919       .  S
C2238      O2244   1.274       .  A
C2238      C2463   1.482       .  S
C2239      C2370   1.479       .  S
H2240      O2241   0.966       .  S
O2241     Ni2249   1.909       .  S
O2241     Ni2243   1.904       .  S
O2241     Ni2248   1.890       .  S
O2242     Ni2243   1.929       .  S
Ni2243     O2247   1.920       .  S
Ni2243     O2245   1.935       .  S
O2244     Ni2249   1.939       .  S
C2246      O2247   1.268       .  A
C2246      C2573   1.472       .  S
O2251     Ni2257   1.923       .  S
O2251      C2272   1.268       .  A
O2252     Ni2275   1.919       .  S
O2252      C2261   1.270       .  A
O2253     Ni2257   1.899       .  S
O2253     Ni2275   1.912       .  S
O2253     Ni2269   1.917       .  S
O2253      H2276   0.965       .  S
C2254      O2271   1.282       .  A
C2254      O2263   1.278       .  A
C2254      C2393   1.483       .  S
O2255     Ni2274   1.925       .  S
O2255      C2261   1.272       .  A
O2256     Ni2274   1.908       .  S
O2256      C2258   1.269       .  A
Ni2257     O2260   1.924       .  S
Ni2257     O2262   1.899       .  S
C2258      O2268   1.270       .  A
C2258      C2350   1.482       .  S
O2259     Ni2275   1.910       .  S
C2261      C2363   1.481       .  S
O2262      C2264   1.269       .  A
O2263     Ni2274   1.912       .  S
C2264      O2270   1.275       .  A
C2264      C2340   1.486       .  S
C2265      C2403   1.477       .  S
H2266      O2267   0.966       .  S
O2267     Ni2275   1.905       .  S
O2267     Ni2269   1.903       .  S
O2267     Ni2274   1.890       .  S
O2268     Ni2269   1.925       .  S
Ni2269     O2273   1.919       .  S
Ni2269     O2271   1.934       .  S
O2270     Ni2275   1.940       .  S
C2272      O2273   1.268       .  A
C2272      C2583   1.467       .  S
O2277     Ni2283   1.922       .  S
O2277      C2298   1.270       .  A
O2278     Ni2301   1.913       .  S
O2278      C2287   1.267       .  A
O2279     Ni2283   1.904       .  S
O2279     Ni2301   1.915       .  S
O2279     Ni2295   1.923       .  S
O2279      H2302   0.966       .  S
C2280      O2297   1.284       .  A
C2280      O2289   1.279       .  A
C2280      C2443   1.488       .  S
O2281     Ni2300   1.929       .  S
O2281      C2287   1.273       .  A
O2282     Ni2300   1.906       .  S
O2282      C2284   1.269       .  A
Ni2283     O2286   1.931       .  S
Ni2283     O2288   1.903       .  S
C2284      O2294   1.273       .  A
C2284      C2383   1.486       .  S
O2285     Ni2301   1.913       .  S
C2287      C2330   1.476       .  S
O2288      C2290   1.269       .  A
O2289     Ni2300   1.916       .  S
C2290      O2296   1.275       .  A
C2290      C2373   1.485       .  S
C2291      C2433   1.478       .  S
H2292      O2293   0.966       .  S
O2293     Ni2301   1.904       .  S
O2293     Ni2295   1.899       .  S
O2293     Ni2300   1.889       .  S
O2294     Ni2295   1.933       .  S
Ni2295     O2299   1.919       .  S
Ni2295     O2297   1.939       .  S
O2296     Ni2301   1.942       .  S
C2298      O2299   1.270       .  A
C2298      C2633   1.467       .  S
O2303     Ni2309   1.932       .  S
O2303      C2324   1.271       .  A
O2304     Ni2327   1.921       .  S
O2304      C2313   1.270       .  A
O2305     Ni2309   1.903       .  S
O2305     Ni2327   1.913       .  S
O2305     Ni2321   1.914       .  S
O2305      H2328   0.966       .  S
C2306      O2323   1.281       .  A
C2306      O2315   1.278       .  A
C2306      C2353   1.485       .  S
O2307     Ni2326   1.924       .  S
O2307      C2313   1.272       .  A
O2308     Ni2326   1.907       .  S
O2308      C2310   1.269       .  A
Ni2309     O2312   1.931       .  S
Ni2309     O2314   1.905       .  S
C2310      O2320   1.270       .  A
C2310      C2413   1.479       .  S
O2311     Ni2327   1.907       .  S
C2313      C2333   1.483       .  S
O2314      C2316   1.270       .  A
O2315     Ni2326   1.915       .  S
C2316      O2322   1.274       .  A
C2316      C2423   1.485   1_655  S
C2317      C2343   1.480       .  S
H2318      O2319   0.966       .  S
O2319     Ni2327   1.906       .  S
O2319     Ni2321   1.903       .  S
O2319     Ni2326   1.892       .  S
O2320     Ni2321   1.925       .  S
Ni2321     O2325   1.912       .  S
Ni2321     O2323   1.933       .  S
O2322     Ni2327   1.939       .  S
C2324      O2325   1.267       .  A
C2324      C2483   1.468       .  S
C2329      C2330   1.401       .  A
C2329      H2335   1.084       .  S
C2330      C2331   1.407       .  A
C2331      H2336   1.083       .  S
C2332      C2333   1.408       .  A
C2332      H2337   1.083       .  S
C2333      C2334   1.404       .  A
C2334      H2338   1.083       .  S
C2339      C2340   1.407       .  A
C2339      C2344   1.394       .  A
C2339      H2345   1.083       .  S
C2340      C2341   1.408       .  A
C2341      C2342   1.404       .  A
C2341      H2346   1.083       .  S
C2342      C2343   1.406       .  A
C2342      H2347   1.083       .  S
C2343      C2344   1.403       .  A
C2344      H2348   1.083       .  S
C2349      C2350   1.408       .  A
C2349      C2354   1.403       .  A
C2349      H2355   1.083       .  S
C2350      C2351   1.403       .  A
C2351      C2352   1.393       .  A
C2351      H2356   1.083       .  S
C2352      C2353   1.407       .  A
C2352      H2357   1.083       .  S
C2353      C2354   1.407       .  A
C2354      H2358   1.083       .  S
C2359      C2360   1.404       .  A
C2359      H2365   1.083       .  S
C2360      C2361   1.409       .  A
C2361      H2366   1.083       .  S
C2362      C2363   1.407       .  A
C2362      H2367   1.083       .  S
C2363      C2364   1.403       .  A
C2364      H2368   1.083       .  S
C2369      C2370   1.406       .  A
C2369      C2374   1.402       .  A
C2369      H2375   1.083       .  S
C2370      C2371   1.403       .  A
C2371      C2372   1.396       .  A
C2372      C2373   1.407       .  A
C2372      H2377   1.083       .  S
C2373      C2374   1.407       .  A
C2374      H2378   1.083       .  S
C2379      C2380   1.407       .  A
C2379      C2384   1.394       .  A
C2379      H2385   1.083       .  S
C2380      C2381   1.408       .  A
C2381      C2382   1.406       .  A
C2381      H2386   1.083       .  S
C2382      C2383   1.408       .  A
C2382      H2387   1.083       .  S
C2383      C2384   1.405       .  A
C2384      H2388   1.083       .  S
C2389      C2390   1.408       .  A
C2389      C2394   1.401       .  A
C2389      H2395   1.083       .  S
C2390      C2391   1.402       .  A
C2391      C2392   1.393       .  A
C2391      H2396   1.083       .  S
C2392      C2393   1.408       .  A
C2392      H2397   1.083       .  S
C2393      C2394   1.406       .  A
C2394      H2398   1.083       .  S
C2399      C2404   1.392       .  A
C2401      C2402   1.401       .  A
C2401      H2406   1.083       .  S
C2402      C2403   1.407       .  A
C2402      H2407   1.083       .  S
C2403      C2404   1.403       .  A
C2409      C2410   1.408       .  A
C2409      C2414   1.402       .  A
C2409      H2415   1.083       .  S
C2410      C2411   1.407       .  A
C2411      C2412   1.395       .  A
C2411      H2416   1.083       .  S
C2412      C2413   1.403       .  A
C2412      H2417   1.083       .  S
C2413      C2414   1.406       .  A
C2414      H2418   1.083       .  S
C2419      C2420   1.406       .  A
C2419      C2424   1.403       .  A
C2419      H2425   1.083       .  S
C2420      C2421   1.404       .  A
C2421      C2422   1.395       .  A
C2421      H2426   1.083       .  S
C2422      H2427   1.083       .  S
C2429      C2434   1.402       .  A
C2431      C2432   1.393       .  A
C2431      H2436   1.083       .  S
C2432      C2433   1.402       .  A
C2432      H2437   1.083       .  S
C2433      C2434   1.407       .  A
C2439      C2440   1.407       .  A
C2439      C2444   1.403       .  A
C2439      H2445   1.083       .  S
C2440      C2441   1.404       .  A
C2441      C2442   1.395       .  A
C2441      H2446   1.083       .  S
C2442      C2443   1.408       .  A
C2442      H2447   1.083       .  S
C2443      C2444   1.407       .  A
C2444      H2448   1.083       .  S
C2449      C2450   1.404       .  A
C2449      C2454   1.396       .  A
C2449      H2455   1.083       .  S
C2450      C2451   1.407       .  A
C2451      C2452   1.403       .  A
C2451      H2456   1.083       .  S
C2452      C2453   1.408       .  A
C2452      H2457   1.083       .  S
C2453      C2454   1.407       .  A
C2454      H2458   1.083       .  S
C2459      C2460   1.407       .  A
C2459      C2464   1.402       .  A
C2459      H2465   1.083       .  S
C2460      C2461   1.403       .  A
C2461      C2462   1.394       .  A
C2461      H2466   1.083       .  S
C2462      H2467   1.083       .  S
C2469      C2470   1.408       .  A
C2469      C2474   1.407   1_556  A
C2469      H2475   1.083       .  S
C2470      C2471   1.406       .  A
C2471      C2472   1.395   1_556  A
C2471      H2476   1.083       .  S
C2472      C2473   1.403       .  A
C2472      H2477   1.083       .  S
C2473      C2474   1.407       .  A
C2474      H2478   1.083       .  S
C2479      C2480   1.403       .  A
C2479      C2484   1.399       .  A
C2479      H2485   1.083       .  S
C2480      C2481   1.403       .  A
C2481      C2482   1.400       .  A
C2481      H2486   1.083       .  S
C2482      C2483   1.402       .  A
C2482      H2487   1.083       .  S
C2483      C2484   1.403       .  A
C2484      H2488   1.084       .  S
C2489      C2494   1.392   1_455  A
C2489      H2495   1.084       .  S
C2490      C2491   1.405       .  A
C2491      C2492   1.405       .  A
C2491      H2496   1.083       .  S
C2492      H2497   1.083       .  S
C2493      C2494   1.404       .  A
C2494      H2498   1.083       .  S
C2499      C2500   1.404       .  A
C2499      C2504   1.405       .  A
C2499      H2505   1.083       .  S
C2500      C2501   1.400       .  A
C2501      C2502   1.393       .  A
C2501      H2506   1.084       .  S
C2502      C2503   1.402       .  A
C2502      H2507   1.084       .  S
C2503      C2504   1.406       .  A
C2504      H2508   1.083       .  S
C2509      C2510   1.403       .  A
C2509      C2514   1.393       .  A
C2509      H2515   1.084       .  S
C2510      C2511   1.408       .  A
C2511      C2512   1.408       .  A
C2511      H2516   1.083       .  S
C2512      C2513   1.405       .  A
C2512      H2517   1.083       .  S
C2513      C2514   1.400       .  A
C2514      H2518   1.084       .  S
C2519      C2520   1.406       .  A
C2519      C2524   1.402       .  A
C2519      H2525   1.083       .  S
C2520      C2521   1.404       .  A
C2521      C2522   1.393       .  A
C2521      H2526   1.083       .  S
C2522      C2523   1.406       .  A
C2522      H2527   1.083       .  S
C2523      C2524   1.407       .  A
C2524      H2528   1.083       .  S
C2529      C2530   1.405       .  A
C2529      C2534   1.390       .  A
C2529      H2535   1.083       .  S
C2530      C2531   1.408       .  A
C2531      C2532   1.405       .  A
C2531      H2536   1.083       .  S
C2532      C2533   1.408       .  A
C2533      C2534   1.403       .  A
C2534      H2538   1.083       .  S
C2539      C2540   1.406       .  A
C2539      H2545   1.083       .  S
C2540      C2541   1.401       .  A
C2541      C2542   1.391   1_565  A
C2541      H2546   1.084       .  S
C2542      H2547   1.083       .  S
C2543      C2544   1.409       .  A
C2544      H2548   1.083       .  S
C2549      C2550   1.407       .  A
C2549      C2554   1.403       .  A
C2550      C2551   1.403       .  A
C2551      C2552   1.389       .  A
C2551      H2556   1.083       .  S
C2552      C2553   1.405       .  A
C2552      H2557   1.083       .  S
C2553      C2554   1.407       .  A
C2554      H2558   1.083       .  S
C2559      C2560   1.407       .  A
C2559      C2564   1.395       .  A
C2559      H2565   1.083       .  S
C2560      C2561   1.407       .  A
C2561      C2562   1.402       .  A
C2561      H2566   1.083       .  S
C2562      C2563   1.407       .  A
C2562      H2567   1.083       .  S
C2563      C2564   1.404       .  A
C2564      H2568   1.083       .  S
C2569      C2570   1.404       .  A
C2569      C2574   1.404       .  A
C2569      H2575   1.083       .  S
C2570      C2571   1.402       .  A
C2571      C2572   1.396       .  A
C2571      H2576   1.084       .  S
C2572      C2573   1.402       .  A
C2572      H2577   1.083       .  S
C2573      C2574   1.405       .  A
C2574      H2578   1.083       .  S
C2579      C2580   1.403       .  A
C2579      C2584   1.401       .  A
C2579      H2585   1.083       .  S
C2580      C2581   1.402       .  A
C2581      C2582   1.398       .  A
C2581      H2586   1.083       .  S
C2582      C2583   1.403       .  A
C2582      H2587   1.084       .  S
C2583      C2584   1.403       .  A
C2584      H2588   1.083       .  S
C2589      C2590   1.407       .  A
C2589      C2594   1.404       .  A
C2589      H2595   1.083       .  S
C2590      C2591   1.408       .  A
C2591      C2592   1.394       .  A
C2591      H2596   1.083       .  S
C2592      C2593   1.403       .  A
C2592      H2597   1.083       .  S
C2593      C2594   1.409       .  A
C2594      H2598   1.083       .  S
C2599      C2600   1.408       .  A
C2599      C2604   1.404       .  A
C2599      H2605   1.083       .  S
C2600      C2601   1.404       .  A
C2601      C2602   1.393       .  A
C2601      H2606   1.083       .  S
C2604      H2608   1.083       .  S
C2609      C2610   1.407       .  A
C2609      C2614   1.394       .  A
C2609      H2615   1.083       .  S
C2610      C2611   1.407       .  A
C2611      C2612   1.401       .  A
C2611      H2616   1.083       .  S
C2612      C2613   1.407       .  A
C2612      H2617   1.083       .  S
C2613      C2614   1.403       .  A
C2614      H2618   1.083       .  S
C2619      C2620   1.403       .  A
C2619      C2624   1.393       .  A
C2619      H2625   1.083       .  S
C2620      C2621   1.407       .  A
C2621      C2622   1.404       .  A
C2621      H2626   1.083       .  S
C2622      H2627   1.083       .  S
C2629      C2630   1.402       .  A
C2629      C2634   1.401       .  A
C2629      H2635   1.083       .  S
C2630      C2631   1.403       .  A
C2631      C2632   1.398       .  A
C2631      H2636   1.084       .  S
C2632      C2633   1.402       .  A
C2632      H2637   1.083       .  S
C2633      C2634   1.405       .  A
C2634      H2638   1.083       .  S
C2639      C2640   1.402       .  A
C2639      C2644   1.392       .  A
C2639      H2645   1.084       .  S
C2640      C2641   1.406       .  A
C2641      C2642   1.407       .  A
C2641      H2646   1.083       .  S
C2642      C2643   1.409       .  A
C2642      H2647   1.083       .  S
C2643      C2644   1.405       .  A
C2644      H2648   1.083       .  S
C2649      C2654   1.406       .  A
C2649      H2655   1.083       .  S
C2650      C2651   1.407       .  A
C2651      H2656   1.083       .  S
C2652      C2653   1.404       .  A
C2652      H2657   1.083       .  S
C2653      C2654   1.409       .  A
C2654      H2658   1.083       .  S
C2659      C2660   1.403       .  A
C2659      C2664   1.396       .  A
C2659      H2665   1.083       .  S
C2660      C2661   1.408       .  A
C2661      C2662   1.401       .  A
C2661      H2666   1.083       .  S
C2662      C2663   1.406       .  A
C2662      H2667   1.083       .  S
C2663      C2664   1.408       .  A
C2664      H2668   1.083       .  S
C2669      C2670   1.402       .  A
C2669      C2674   1.388       .  A
C2669      H2675   1.083       .  S
C2670      C2671   1.406       .  A
C2671      C2672   1.405       .  A
C2671      H2676   1.083       .  S
C2674      H2678   1.083       .  S
C2679      C2680   1.404       .  A
C2679      C2684   1.394       .  A
C2679      H2685   1.083       .  S
C2680      C2681   1.406       .  A
C2681      C2682   1.401       .  A
C2681      H2686   1.083       .  S
C2682      C2683   1.407       .  A
C2682      H2687   1.083       .  S
C2683      C2684   1.405       .  A
C2684      H2688   1.083       .  S
