geometry optimzed in LAMMPS
_audit_creation_date              2020-12-01 
_audit_creation_method            'lammps2cif' 
_symmetry_space_group_name_H-M    'P1' 
_symmetry_Int_Tables_number       1 
_symmetry_cell_setting            triclinic 
loop_ 
_symmetry_equiv_pos_as_xyz 
  x,y,z 
_cell_length_a                    30.67989509 
_cell_length_b                    30.68885333906154 
_cell_length_c                    169.1261533429753 
_cell_angle_alpha                 89.98361822494856 
_cell_angle_beta                  89.95978682874556 
_cell_angle_gamma                 119.95881336986648 
loop_ 
_atom_site_label 
_atom_site_type_symbol 
_atom_site_fract_x 
_atom_site_fract_y 
_atom_site_fract_z 
_atom_site_charge 
Zr1        Zr  0.76758692  0.16232113  0.61257606     2.17500
O2          O  0.78793889  0.21410677  0.60071045    -0.52200
O3          O  0.68254474  0.14735936  0.61398258    -0.75400
O4          O  0.73017073  0.11174762  0.60080716    -0.82200
O5          O  0.83308483  0.27638058  0.62596948    -0.83900
O6          O  0.73681623  0.04124880  0.60138778    -0.79500
O7          O  0.78750927  0.24906325  0.61459971    -0.91200
O8          O  0.64887862  0.09668939  0.62465849    -0.77100
O9          O  0.72510481  0.07575276  0.61624076    -0.86600
O10         O  0.75204692  0.16078448  0.62640854    -0.86300
O11         O  0.82311157  0.13105356  0.60923493    -0.73100
O12         O  0.84820924  0.21018428  0.61870921    -0.85200
Zr13       Zr  0.84789488  0.09136139  0.63348033     2.26400
Zr14       Zr  0.78166432  0.04506943  0.61353501     2.06300
Zr15       Zr  0.83250661  0.20628595  0.63259284     2.10000
Zr16       Zr  0.70929201  0.07421999  0.62994170     1.78800
O17         O  0.91264041  0.27525625  0.63718650    -0.94000
O18         O  0.64206354  0.99339903  0.62521217    -0.41800
O19         O  0.78947394  0.11972676  0.63625269    -0.78400
O20         O  0.76558291  0.04193522  0.62746611    -0.97100
O21         O  0.86216915  0.09284612  0.61961759    -0.90400
O22         O  0.89072899  0.17798150  0.62964132    -0.93300
C23         C  0.64649167  0.12273670  0.61888530     1.00500
C24         C  0.81300442  0.28307773  0.61978300     1.13400
C25         C  0.72267009  0.06965707  0.59799336     1.04200
O26         O  0.71011674  0.95983903  0.61347536    -0.95400
O27         O  0.80935644  0.98731594  0.61824488    -0.91200
O28         O  0.83146990  0.00618589  0.63113447    -0.84300
C29         C  0.82255831  0.97834804  0.62500480     1.10800
O30         O  0.92351094  0.22647064  0.60332569    -0.97400
Zr31       Zr  0.90275187  0.17845380  0.61561206     1.88900
O32         O  0.93893986  0.12089573  0.63217975    -0.74100
O33         O  0.82248778  0.03164606  0.60219795    -0.53300
O34         O  0.93415793  0.14284721  0.60576017    -0.98000
O35         O  0.96812711  0.26590243  0.61737435    -0.55200
O36         O  0.96968774  0.17126969  0.62137818    -0.74600
C37         C  0.97455893  0.14818704  0.62727292     0.97800
O38         O  0.86143821  0.04457124  0.64395745    -0.63400
O39         O  0.79071774  0.24359343  0.63988838    -0.58200
O40         O  0.83922798  0.11617018  0.64707335    -0.94900
O41         O  0.83121622  0.18558446  0.64646985    -0.93300
O42         O  0.67866618  0.09772575  0.64154750    -0.93700
O43         O  0.67495071  0.01440884  0.64083953    -0.92400
C44         C  0.83317035  0.15073444  0.65036299     1.16600
H45         H  0.73261980  0.17686822  0.62767247     0.32600
H46         H  0.74956155  0.00750068  0.62928255     0.43400
H47         H  0.92185016  0.19736103  0.63247492     0.36900
H48         H  0.82821257  0.13261797  0.60359076     0.33400
H49         H  0.61263680  0.98602637  0.62854519     0.25200
H50         H  0.85491935  0.03684775  0.60426435     0.31100
H51         H  0.93595933  0.11524546  0.60849797     0.37000
H52         H  0.70945486  0.12159280  0.64445305     0.31500
H53         H  0.81608195  0.26660557  0.64373315     0.30400
H54         H  0.92561300  0.29884891  0.63266088     0.32100
H55         H  0.99881719  0.26809426  0.61505682     0.31000
H56         H  0.69617672  0.99855931  0.64106357     0.35000
H57         H  0.88894021  0.06996645  0.64728416     0.27800
H58         H  0.75524669  0.20437582  0.59817335     0.32000
H59         H  0.95791107  0.23404963  0.60188885     0.34800
H60         H  0.76479899  0.21596524  0.64314370     0.27500
H61         H  0.83100479  0.03013679  0.64734492     0.40300
H62         H  0.68038772  0.96400797  0.61277896     0.30400
H63         H  0.63323997  0.00046613  0.61991838     0.38000
H64         H  0.97465485  0.26972834  0.62313115     0.29900
H65         H  0.80245217  0.99505588  0.60116496     0.29900
H66         H  0.80468277  0.20154604  0.59710770     0.30200
Zr67       Zr  0.80311481  0.20863025  0.70111232     2.17500
O68         O  0.80143813  0.26442147  0.69096072    -0.52200
O69         O  0.71263499  0.17775945  0.70266581    -0.75400
O70         O  0.79056953  0.17468447  0.68760653    -0.82200
O71         O  0.85370744  0.31723497  0.71580097    -0.83900
O72         O  0.79823598  0.10481981  0.68770301    -0.79500
O73         O  0.81727655  0.29228895  0.70369714    -0.91200
O74         O  0.68703030  0.13562576  0.71429092    -0.77100
O75         O  0.76188300  0.12236178  0.70483019    -0.86600
O76         O  0.79195719  0.20748991  0.71510303    -0.86300
O77         O  0.86199232  0.18190368  0.69747445    -0.73100
O78         O  0.88619153  0.25815538  0.70679290    -0.85200
Zr79       Zr  0.88920798  0.13881222  0.72087805     2.26400
Zr80       Zr  0.81984613  0.09486273  0.70119138     2.06300
Zr81       Zr  0.87407343  0.25483572  0.72083309     2.10000
Zr82       Zr  0.75278082  0.12163643  0.71889123     1.78800
O83         O  0.94758899  0.33817677  0.72227650    -0.94000
O84         O  0.68178401  0.03888580  0.71582898    -0.41800
O85         O  0.83385003  0.16869477  0.72490044    -0.78400
O86         O  0.80694488  0.09020347  0.71521905    -0.97100
O87         O  0.90142642  0.14139771  0.70697311    -0.90400
O88         O  0.93024603  0.22541629  0.71724937    -0.93300
C89         C  0.67958583  0.15494087  0.70811876     1.00500
C90         C  0.83375228  0.32324214  0.70949563     1.13400
C91         C  0.79211811  0.13821732  0.68409030     1.04200
O92         O  0.73915469  0.01774284  0.69980552    -0.95400
O93         O  0.83645783  0.03061862  0.70641573    -0.91200
O94         O  0.87689861  0.05551402  0.71822560    -0.84300
C95         C  0.85633212  0.02339103  0.71261599     1.10800
O96         O  0.96523441  0.28722315  0.69254205    -0.97400
Zr97       Zr  0.94256274  0.22778035  0.70344994     1.88900
O98         O  0.97303427  0.15283942  0.71844686    -0.74100
O99         O  0.86030145  0.07195736  0.69089576    -0.53300
O100        O  0.97056631  0.20279225  0.69168951    -0.98000
O101        O  0.01384691  0.30888397  0.70718670    -0.55200
O102        O  0.00318623  0.20335056  0.70766160    -0.74600
C103        C  0.00683222  0.17650646  0.71316541     0.97800
O104        O  0.86562334  0.08833227  0.73291299    -0.63400
O105        O  0.83172500  0.26678573  0.73210413    -0.58200
O106        O  0.93301426  0.18902249  0.73236050    -0.94900
O107        O  0.91912283  0.25530607  0.73281428    -0.93300
O108        O  0.73044686  0.15064101  0.73081919    -0.93700
O109        O  0.72575147  0.06207111  0.72981852    -0.92400
C110        C  0.93750585  0.22885878  0.73562583     1.16600
H111        H  0.77137725  0.22197932  0.71652218     0.32600
H112        H  0.79126860  0.05577823  0.71699620     0.43400
H113        H  0.96231165  0.24442930  0.71984324     0.36900
H114        H  0.87048412  0.18681508  0.69193902     0.33400
H115        H  0.65262992  0.03768196  0.71856115     0.25200
H116        H  0.83782564  0.03540663  0.69010319     0.31100
H117        H  0.96378491  0.16832915  0.69285531     0.37000
H118        H  0.71540369  0.17072680  0.72892785     0.31500
H119        H  0.84830449  0.30371656  0.73278201     0.30400
H120        H  0.93836688  0.35437104  0.72651480     0.32100
H121        H  0.02982862  0.30194136  0.71172197     0.31000
H122        H  0.75698742  0.07113400  0.73276496     0.35000
H123        H  0.85943642  0.10810240  0.73692722     0.27800
H124        H  0.76939123  0.24462295  0.68805375     0.32000
H125        H  0.00176814  0.30120734  0.69169998     0.34800
H126        H  0.79753281  0.25676829  0.73019707     0.27500
H127        H  0.83155562  0.06000641  0.73175463     0.40300
H128        H  0.72490055  0.02185167  0.69479975     0.30400
H129        H  0.67500315  0.04029452  0.71013902     0.38000
H130        H  0.99842354  0.32759715  0.70950215     0.29900
H131        H  0.89082938  0.07494420  0.69340301     0.29900
H132        H  0.82824585  0.27017328  0.68713533     0.30200
Zr133      Zr  0.80329540  0.56535172  0.61255599     2.17500
O134        O  0.75666491  0.53491442  0.60023233    -0.52200
O135        O  0.81536819  0.49384599  0.61439184    -0.75400
O136        O  0.85187408  0.57297531  0.60069376    -0.82200
O137        O  0.69513118  0.51648537  0.62709385    -0.83900
O138        O  0.92426900  0.64856452  0.60100323    -0.79500
O139        O  0.71592981  0.50147525  0.61488522    -0.91200
O140        O  0.87429160  0.51412939  0.62395626    -0.77100
O141        O  0.89039809  0.60734299  0.61577362    -0.86600
O142        O  0.80729996  0.55320577  0.62641406    -0.86300
O143        O  0.83476296  0.65165591  0.60896804    -0.73100
O144        O  0.75777088  0.60019763  0.61896662    -0.85200
Zr145      Zr  0.88238838  0.71931922  0.63274828     2.26400
Zr146      Zr  0.92189030  0.69394023  0.61267177     2.06300
Zr147      Zr  0.76474285  0.59069279  0.63286387     2.10000
Zr148      Zr  0.89460424  0.59531251  0.62949281     1.78800
O149        O  0.69936677  0.60935990  0.63677398    -0.94000
O150        O  0.97744033  0.61039178  0.62561034    -0.41800
O151        O  0.85194667  0.63261410  0.63582930    -0.78400
O152        O  0.92880519  0.68351508  0.62659711    -0.97100
O153        O  0.87740094  0.73004522  0.61892601    -0.90400
O154        O  0.79484829  0.67724782  0.62969465    -0.93300
C155        C  0.84362032  0.48406035  0.61874345     1.00500
C156        C  0.68511510  0.49120436  0.62066436     1.13400
C157        C  0.89470993  0.60571844  0.59780482     1.04200
O158        O  0.00612049  0.70577850  0.61125837    -0.95400
O159        O  0.98610056  0.77697391  0.61706285    -0.91200
O160        O  0.96737944  0.78589605  0.62973853    -0.84300
C161        C  0.99568918  0.80131170  0.62360545     1.10800
O162        O  0.72339328  0.64634975  0.60594037    -0.97400
Zr163      Zr  0.79028187  0.68659084  0.61572220     1.88900
O164        O  0.85833663  0.78469826  0.63139052    -0.74100
O165        O  0.93032197  0.74810699  0.60155433    -0.53300
O166        O  0.81197144  0.73747561  0.60376547    -0.98000
O167        O  0.71119581  0.67994822  0.61999059    -0.55200
O168        O  0.81553196  0.77109704  0.61985772    -0.74600
C169        C  0.83818581  0.79796648  0.62590182     0.97800
O170        O  0.92365988  0.77202989  0.64424363    -0.63400
O171        O  0.72731426  0.52029534  0.64213592    -0.58200
O172        O  0.85999076  0.69057666  0.64645915    -0.94900
O173        O  0.79051276  0.61278709  0.64652389    -0.93300
O174        O  0.87049540  0.53329860  0.64002646    -0.93700
O175        O  0.94678870  0.62293936  0.64131415    -0.92400
C176        C  0.82659026  0.65069623  0.65003302     1.16600
H177        H  0.79091434  0.51788931  0.62775167     0.32600
H178        H  0.96357708  0.70119451  0.62822270     0.43400
H179        H  0.77782106  0.69121252  0.63269024     0.36900
H180        H  0.83179722  0.65417575  0.60331604     0.33400
H181        H  0.98269919  0.58648114  0.62883779     0.25200
H182        H  0.94012917  0.78126048  0.60393178     0.31100
H183        H  0.84774358  0.76337284  0.60446217     0.37000
H184        H  0.83357834  0.51152247  0.63952347     0.31500
H185        H  0.69094543  0.50910504  0.64230655     0.30400
H186        H  0.66805007  0.57630673  0.63681561     0.32100
H187        H  0.71991190  0.70331814  0.62450899     0.31000
H188        H  0.94737531  0.65426382  0.64291571     0.35000
H189        H  0.95471104  0.77028890  0.64505187     0.27800
H190        H  0.73896020  0.49770276  0.60052446     0.32000
H191        H  0.71497265  0.67229402  0.60433660     0.34800
H192        H  0.72940898  0.49248584  0.63953100     0.27500
H193        H  0.93548039  0.80703633  0.64251819     0.40300
H194        H  0.01422076  0.69742677  0.61651086     0.30400
H195        H  0.97300638  0.59715014  0.62015283     0.38000
H196        H  0.69188957  0.64597013  0.62236024     0.29900
H197        H  0.96084210  0.75336536  0.59873210     0.29900
H198        H  0.72990090  0.54386388  0.60050610     0.30200
Zr199      Zr  0.77370962  0.58085795  0.70114474     2.17500
O200        O  0.71350201  0.53098104  0.69084327    -0.52200
O201        O  0.79929508  0.51652708  0.70235509    -0.75400
O202        O  0.80687720  0.60179354  0.68759483    -0.82200
O203        O  0.66749309  0.52075797  0.71619729    -0.83900
O204        O  0.87214160  0.68208059  0.68769020    -0.79500
O205        O  0.69127697  0.51056356  0.70390525    -0.91200
O206        O  0.84426586  0.53281330  0.71371370    -0.77100
O207        O  0.86060541  0.62287879  0.70458787    -0.86600
O208        O  0.77623912  0.56968089  0.71507428    -0.86300
O209        O  0.80164636  0.66753034  0.69802356    -0.73100
O210        O  0.72603893  0.61517492  0.70728818    -0.85200
Zr211      Zr  0.84953574  0.73393377  0.72153404     2.26400
Zr212      Zr  0.88948989  0.70907535  0.70140940     2.06300
Zr213      Zr  0.72995057  0.60418179  0.72123222     2.10000
Zr214      Zr  0.86276816  0.61341193  0.71858952     1.78800
O215        O  0.64598641  0.59373476  0.72195437    -0.94000
O216        O  0.94522874  0.62795259  0.71451028    -0.41800
O217        O  0.81686228  0.64733704  0.72505598    -0.78400
O218        O  0.89613257  0.69968409  0.71532265    -0.97100
O219        O  0.84496431  0.74499890  0.70767057    -0.90400
O220        O  0.76213742  0.69123193  0.71822936    -0.93300
C221        C  0.82203544  0.50539836  0.70771683     1.00500
C222        C  0.66102293  0.49531680  0.70979691     1.13400
C223        C  0.83994551  0.64206436  0.68408020     1.04200
O224        O  0.95849345  0.69186354  0.70010869    -0.95400
O225        O  0.95366147  0.79062033  0.70627309    -0.91200
O226        O  0.93408203  0.80340483  0.71872301    -0.84300
C227        C  0.96340537  0.81623678  0.71267893     1.10800
O228        O  0.69172408  0.66930807  0.69459197    -0.97400
Zr229      Zr  0.75792750  0.70283800  0.70455834     1.88900
O230        O  0.84116048  0.80722910  0.71929922    -0.74100
O231        O  0.93767346  0.77954226  0.69248145    -0.53300
O232        O  0.77288120  0.75149958  0.69247094    -0.98000
O233        O  0.68273550  0.69814816  0.71028347    -0.55200
O234        O  0.79244648  0.79044531  0.70835169    -0.74600
C235        C  0.82137035  0.82015168  0.71376284     0.97800
O236        O  0.90085576  0.75897037  0.73349085    -0.63400
O237        O  0.71726991  0.54961473  0.73249039    -0.58200
O238        O  0.80096830  0.72591238  0.73343470    -0.94900
O239        O  0.72903343  0.64938081  0.73315702    -0.93300
O240        O  0.84004684  0.55711953  0.72992183    -0.93700
O241        O  0.91984451  0.64526256  0.72984403    -0.92400
C242        C  0.75846376  0.69246876  0.73635895     1.16600
H243        H  0.76118742  0.53448659  0.71640138     0.32600
H244        H  0.93100805  0.71772968  0.71691871     0.43400
H245        H  0.74448570  0.70515379  0.72100504     0.36900
H246        H  0.79490039  0.67140764  0.69260075     0.33400
H247        H  0.95501603  0.61150914  0.71861740     0.25200
H248        H  0.95123844  0.76703333  0.68829816     0.31100
H249        H  0.75502044  0.77058210  0.69325117     0.37000
H250        H  0.80837825  0.52657417  0.72839554     0.31500
H251        H  0.68034813  0.53041066  0.73326375     0.30400
H252        H  0.62799246  0.56673570  0.72590648     0.32100
H253        H  0.65617328  0.66249476  0.70968517     0.31000
H254        H  0.93645816  0.68235355  0.72946751     0.35000
H255        H  0.88949476  0.72698841  0.73636660     0.27800
H256        H  0.72944343  0.51535310  0.68772841     0.32000
H257        H  0.70044451  0.64910771  0.69105264     0.34800
H258        H  0.72588544  0.52451983  0.73050886     0.27500
H259        H  0.93543175  0.76869290  0.73180122     0.40300
H260        H  0.94777523  0.66639616  0.69585769     0.30400
H261        H  0.93869750  0.60667058  0.70976243     0.38000
H262        H  0.67314690  0.71678803  0.70655391     0.29900
H263        H  0.91247875  0.78555957  0.68981943     0.29900
H264        H  0.71162464  0.55538518  0.68722371     0.30200
Zr265      Zr  0.40270478  0.20299208  0.61218006     2.17500
O266        O  0.44188736  0.18912479  0.60063521    -0.52200
O267        O  0.47379315  0.28593117  0.61463597    -0.75400
O268        O  0.39338725  0.24431511  0.60058949    -0.82200
O269        O  0.44862060  0.13690311  0.62557546    -0.83900
O270        O  0.31924424  0.24444500  0.60113888    -0.79500
O271        O  0.46590363  0.17773056  0.61380183    -0.91200
O272        O  0.45663594  0.31461313  0.62593435    -0.77100
O273        O  0.36010101  0.24699467  0.61597346    -0.86600
O274        O  0.41319419  0.21305499  0.62616660    -0.86300
O275        O  0.31656196  0.15160898  0.60811299    -0.73100
O276        O  0.36647248  0.11989524  0.61758491    -0.85200
Zr277      Zr  0.24661619  0.11992346  0.63179839     2.26400
Zr278      Zr  0.27318296  0.19426729  0.61255190     2.06300
Zr279      Zr  0.37343816  0.13027251  0.63160127     2.10000
Zr280      Zr  0.36969768  0.25620672  0.62983053     1.78800
O281        O  0.35261042  0.04375758  0.63424095    -0.94000
O282        O  0.36765134  0.33058333  0.62512149    -0.41800
O283        O  0.33125429  0.17308587  0.63365708    -0.78400
O284        O  0.28180736  0.20438862  0.62659665    -0.97100
O285        O  0.23639458  0.11093546  0.61781844    -0.90400
O286        O  0.28784354  0.07510611  0.62789267    -0.93300
C287        C  0.48582605  0.31818749  0.62020560     1.00500
C288        C  0.47523983  0.15455234  0.61928177     1.13400
C289        C  0.36153112  0.25608790  0.59788596     1.04200
O290        O  0.26475871  0.26906618  0.61221402    -0.95400
O291        O  0.19043530  0.17584983  0.61745491    -0.91200
O292        O  0.17949869  0.13822032  0.62944826    -0.84300
C293        C  0.16505007  0.15588046  0.62380957     1.10800
O294        O  0.31899422  0.05206938  0.60242520    -0.97400
Zr295      Zr  0.28063971  0.06927173  0.61375793     1.88900
O296        O  0.18581307  0.02944786  0.63008816    -0.74100
O297        O  0.21913154  0.15493415  0.60115441    -0.53300
O298        O  0.22903475  0.04169052  0.60185430    -0.98000
O299        O  0.28890467  0.99607193  0.61684110    -0.55200
O300        O  0.19715660  0.00819938  0.61773671    -0.74600
C301        C  0.17188367  0.99940520  0.62411595     0.97800
O302        O  0.18100746  0.09593310  0.64183536    -0.63400
O303        O  0.44078726  0.15264036  0.64122067    -0.58200
O304        O  0.27700227  0.12916939  0.64547232    -0.94900
O305        O  0.35243267  0.13250620  0.64535343    -0.93300
O306        O  0.41122295  0.27706143  0.64265340    -0.93700
O307        O  0.33976209  0.29313496  0.63969492    -0.92400
C308        C  0.31646083  0.13409073  0.64895321     1.16600
H309        H  0.44805027  0.23015105  0.62775707     0.32600
H310        H  0.26369138  0.22052726  0.62851219     0.43400
H311        H  0.27353979  0.04266804  0.63047359     0.36900
H312        H  0.31477421  0.14869790  0.60242265     0.33400
H313        H  0.38854330  0.34169756  0.62027227     0.25200
H314        H  0.19277229  0.12168302  0.60311041     0.31100
H315        H  0.21161352  0.00446307  0.60202973     0.37000
H316        H  0.44259541  0.30955427  0.64180567     0.31500
H317        H  0.44880333  0.12511939  0.64097555     0.30400
H318        H  0.33883079  0.03658709  0.63968528     0.32100
H319        H  0.26690238  0.97980963  0.62147024     0.31000
H320        H  0.30272056  0.27546276  0.63911187     0.35000
H321        H  0.18223637  0.07005920  0.64519874     0.27800
H322        H  0.46111684  0.22210847  0.59795289     0.32000
H323        H  0.30111090  0.01503107  0.60184127     0.34800
H324        H  0.47080079  0.18238933  0.63900994     0.27500
H325        H  0.19171989  0.12544559  0.64529875     0.40300
H326        H  0.24778724  0.26687584  0.60713459     0.30400
H327        H  0.33285060  0.31803359  0.62323843     0.38000
H328        H  0.32356162  0.01017914  0.61889609     0.29900
H329        H  0.20145305  0.17417997  0.60036881     0.29900
H330        H  0.41365957  0.16808095  0.59704243     0.30200
Zr331      Zr  0.40648696  0.17629773  0.70032551     2.17500
O332        O  0.47267551  0.19130433  0.69084008    -0.52200
O333        O  0.47051667  0.26639027  0.70190371    -0.75400
O334        O  0.38374617  0.17889360  0.68639251    -0.82200
O335        O  0.46014593  0.12426262  0.71565931    -0.83900
O336        O  0.30631489  0.17131617  0.68604020    -0.79500
O337        O  0.46888912  0.15243593  0.70299342    -0.91200
O338        O  0.45329064  0.29502021  0.71316083    -0.77100
O339        O  0.36271261  0.22002973  0.70320752    -0.86600
O340        O  0.41561029  0.19122387  0.71424484    -0.86300
O341        O  0.32057312  0.11573512  0.69691870    -0.73100
O342        O  0.37147871  0.09484910  0.70678336    -0.85200
Zr343      Zr  0.25022583  0.10021040  0.72000927     2.26400
Zr344      Zr  0.27743877  0.16124634  0.69963838     2.06300
Zr345      Zr  0.37985010  0.11127597  0.72070981     2.10000
Zr346      Zr  0.37068857  0.23369902  0.71719562     1.78800
O347        O  0.38961055  0.03842599  0.72312469    -0.94000
O348        O  0.36275245  0.30426143  0.71236341    -0.41800
O349        O  0.33571839  0.15486808  0.72397867    -0.78400
O350        O  0.28569227  0.18016173  0.71350394    -0.97100
O351        O  0.24074745  0.08182734  0.70624275    -0.90400
O352        O  0.29392770  0.05566307  0.71732998    -0.93300
C353        C  0.48143543  0.30006254  0.70728930     1.00500
C354        C  0.48359166  0.13792494  0.70900420     1.13400
C355        C  0.34532005  0.17474941  0.68263493     1.04200
O356        O  0.29320348  0.24361482  0.69536580    -0.95400
O357        O  0.20166458  0.15759236  0.70471957    -0.91200
O358        O  0.18332449  0.11818089  0.71668401    -0.84300
C359        C  0.17423904  0.14004897  0.71094469     1.10800
O360        O  0.32573088  0.00509634  0.69515552    -0.97400
Zr361      Zr  0.28432183  0.03750636  0.70371107     1.88900
O362        O  0.17838749  0.01730456  0.71803303    -0.74100
O363        O  0.20441164  0.11773356  0.69103325    -0.53300
O364        O  0.24062403  0.00954696  0.69109640    -0.98000
O365        O  0.28253554  0.96241490  0.70892819    -0.55200
O366        O  0.19609220  0.98325384  0.70740586    -0.74600
C367        C  0.16653261  0.98275421  0.71284888     0.97800
O368        O  0.22147780  0.12510854  0.73172675    -0.63400
O369        O  0.43749286  0.16051429  0.73125486    -0.58200
O370        O  0.25545936  0.06023825  0.73209879    -0.94900
O371        O  0.33316213  0.06822290  0.73273431    -0.93300
O372        O  0.42230429  0.26620278  0.72904095    -0.93700
O373        O  0.33142258  0.25902928  0.72734227    -0.92400
C374        C  0.28874916  0.05305530  0.73553415     1.16600
H375        H  0.45066087  0.21114904  0.71572505     0.32600
H376        H  0.26845402  0.19794366  0.71497373     0.43400
H377        H  0.27985466  0.02457447  0.72024279     0.36900
H378        H  0.31639798  0.10365068  0.69157463     0.33400
H379        H  0.38446208  0.33250551  0.71591302     0.25200
H380        H  0.20826725  0.14304527  0.68704269     0.31100
H381        H  0.21129642  0.01457398  0.69158470     0.37000
H382        H  0.44137964  0.30321141  0.72835349     0.31500
H383        H  0.41669853  0.16717496  0.73500018     0.30400
H384        H  0.40794892  0.04572994  0.72820606     0.32100
H385        H  0.25540672  0.94848379  0.71293986     0.31000
H386        H  0.32083985  0.23288151  0.73149178     0.35000
H387        H  0.25035902  0.13897346  0.73542514     0.27800
H388        H  0.47714107  0.21945085  0.68740600     0.32000
H389        H  0.29911470  0.97119100  0.69348471     0.34800
H390        H  0.44470846  0.13652578  0.73407121     0.27500
H391        H  0.21927565  0.15494102  0.73010734     0.40300
H392        H  0.27523411  0.25298712  0.69925432     0.30400
H393        H  0.38061646  0.31350935  0.70721744     0.38000
H394        H  0.31402300  0.97536472  0.71200707     0.29900
H395        H  0.21007770  0.09320123  0.68806718     0.29900
H396        H  0.45863416  0.16144368  0.68737348     0.30200
Zr397      Zr  0.21248074  0.40392440  0.88764862     2.17500
O398        O  0.20070151  0.43324409  0.90044100    -0.52200
O399        O  0.29562061  0.47482667  0.88498630    -0.75400
O400        O  0.25626947  0.39457066  0.89896818    -0.82200
O401        O  0.14825243  0.45273706  0.87436340    -0.83900
O402        O  0.25048160  0.31776053  0.89863777    -0.79500
O403        O  0.19155706  0.47055026  0.88593177    -0.91200
O404        O  0.32459317  0.45609268  0.87384776    -0.77100
O405        O  0.25491575  0.36056341  0.88351096    -0.86600
O406        O  0.22104318  0.41441339  0.87363682    -0.86300
O407        O  0.15927637  0.31770696  0.89148638    -0.73100
O408        O  0.12901148  0.36911357  0.88235106    -0.85200
Zr409      Zr  0.12667596  0.24833723  0.86763321     2.26400
Zr410      Zr  0.20104574  0.27404991  0.88693578     2.06300
Zr411      Zr  0.13798423  0.37677556  0.86824741     2.10000
Zr412      Zr  0.26398346  0.37130176  0.86964256     1.78800
O413        O  0.05246109  0.35977612  0.86601289    -0.94000
O414        O  0.33683837  0.36337105  0.87308771    -0.41800
O415        O  0.18131510  0.33431402  0.86438861    -0.78400
O416        O  0.21128101  0.28353752  0.87286154    -0.97100
O417        O  0.11802741  0.23846570  0.88162943    -0.90400
O418        O  0.08280226  0.29049809  0.87171805    -0.93300
C419        C  0.32833086  0.48575419  0.87948923     1.00500
C420        C  0.16805533  0.48004039  0.88051319     1.13400
C421        C  0.26545163  0.36107439  0.90182000     1.04200
O422        O  0.27380076  0.26224329  0.88754561    -0.95400
O423        O  0.17808573  0.19042061  0.88202049    -0.91200
O424        O  0.14796313  0.18324419  0.86953139    -0.84300
C425        C  0.16182673  0.16694661  0.87541924     1.10800
O426        O  0.05843212  0.30948799  0.89836048    -0.97400
Zr427      Zr  0.07690491  0.28275050  0.88584777     1.88900
O428        O  0.03731264  0.18588032  0.86962951    -0.74100
O429        O  0.15891983  0.21915736  0.89814249    -0.53300
O430        O  0.04298774  0.22037910  0.89639797    -0.98000
O431        O  0.01238073  0.30582372  0.88381814    -0.55200
O432        O  0.01049402  0.20389203  0.88102369    -0.74600
C433        C  0.00394651  0.17612983  0.87500815     0.97800
O434        O  0.10271943  0.18462351  0.85732295    -0.63400
O435        O  0.16236732  0.44352585  0.85848768    -0.58200
O436        O  0.13535321  0.28057307  0.85397723    -0.94900
O437        O  0.13947395  0.35630454  0.85428905    -0.93300
O438        O  0.28391388  0.41969054  0.85743837    -0.93700
O439        O  0.29074338  0.34078934  0.85840165    -0.92400
C440        C  0.13948556  0.31991763  0.85051006     1.16600
H441        H  0.23892747  0.44943588  0.87211336     0.32600
H442        H  0.22763481  0.26582071  0.87087116     0.43400
H443        H  0.05043232  0.27682190  0.86916954     0.36900
H444        H  0.15640572  0.31546359  0.89718575     0.33400
H445        H  0.36382408  0.38680225  0.86947208     0.25200
H446        H  0.12665479  0.19223567  0.89597615     0.31100
H447        H  0.07152366  0.22969304  0.90004480     0.37000
H448        H  0.26089453  0.43356007  0.85740771     0.31500
H449        H  0.13668487  0.45396189  0.85887400     0.30400
H450        H  0.04391286  0.34498561  0.86064783     0.32100
H451        H  0.98453149  0.28327930  0.88738006     0.31000
H452        H  0.25900726  0.31382151  0.85609888     0.35000
H453        H  0.07583336  0.18558613  0.85422328     0.27800
H454        H  0.22146124  0.47036764  0.90025605     0.32000
H455        H  0.08198769  0.34617896  0.89852463     0.34800
H456        H  0.19367072  0.47243097  0.86054759     0.27500
H457        H  0.13184109  0.19706106  0.85368336     0.40300
H458        H  0.28137504  0.25881322  0.88196416     0.30400
H459        H  0.34741841  0.37926769  0.87835580     0.38000
H460        H  0.99918020  0.29371481  0.87844397     0.29900
H461        H  0.17869876  0.20233205  0.89919690     0.29900
H462        H  0.16546883  0.42607297  0.90041449     0.30200
Zr463      Zr  0.17971138  0.40547351  0.79950005     2.17500
O464        O  0.17592388  0.46044777  0.80957053    -0.52200
O465        O  0.26949348  0.47042058  0.79841026    -0.75400
O466        O  0.18940597  0.38402616  0.81317878    -0.82200
O467        O  0.12908559  0.46156541  0.78432359    -0.83900
O468        O  0.18243640  0.30688716  0.81326926    -0.79500
O469        O  0.16156196  0.47208943  0.79672267    -0.91200
O470        O  0.29851550  0.45951816  0.78664431    -0.77100
O471        O  0.22635494  0.36505711  0.79624109    -0.86600
O472        O  0.19430915  0.41738260  0.78560160    -0.86300
O473        O  0.12266739  0.31862079  0.80276803    -0.73100
O474        O  0.09768709  0.36834371  0.79326267    -0.85200
Zr475      Zr  0.10720296  0.25276954  0.77914657     2.26400
Zr476      Zr  0.17036051  0.27851615  0.79950197     2.06300
Zr477      Zr  0.11378577  0.38020994  0.77933236     2.10000
Zr478      Zr  0.23956504  0.37576718  0.78226278     1.78800
O479        O  0.04158036  0.39187180  0.77740489    -0.94000
O480        O  0.31224248  0.37109366  0.78695138    -0.41800
O481        O  0.16006181  0.33947048  0.77556457    -0.78400
O482        O  0.18770204  0.28931886  0.78557071    -0.97100
O483        O  0.09051575  0.24005138  0.79295817    -0.90400
O484        O  0.06030113  0.29305712  0.78244119    -0.93300
C485        C  0.30302319  0.48465394  0.79291546     1.00500
C486        C  0.14563982  0.48634646  0.79082256     1.13400
C487        C  0.18691863  0.34595328  0.81682498     1.04200
O488        O  0.25439621  0.29128831  0.80169179    -0.95400
O489        O  0.15974135  0.20025799  0.79427018    -0.91200
O490        O  0.12603235  0.18627638  0.78190994    -0.84300
C491        C  0.14443639  0.17476137  0.78784208     1.10800
O492        O  0.00978953  0.31019100  0.80646031    -0.97400
Zr493      Zr  0.04386620  0.28019022  0.79613646     1.88900
O494        O  0.02483805  0.17910427  0.78093663    -0.74100
O495        O  0.13556444  0.20732782  0.80859787    -0.53300
O496        O  0.02229352  0.22939451  0.80812761    -0.98000
O497        O  0.96933842  0.28283835  0.79182392    -0.55200
O498        O  0.98872168  0.19439845  0.79150981    -0.74600
C499        C  0.98930333  0.16581533  0.78600228     0.97800
O500        O  0.13134957  0.22074106  0.76777992    -0.63400
O501        O  0.16076748  0.43485377  0.76832672    -0.58200
O502        O  0.07019092  0.26172624  0.76690651    -0.94900
O503        O  0.06888220  0.33522981  0.76741481    -0.93300
O504        O  0.26974484  0.42544239  0.77018910    -0.93700
O505        O  0.26902483  0.34010095  0.77213321    -0.92400
C506        C  0.05884993  0.29364556  0.76405132     1.16600
H507        H  0.21328610  0.45270728  0.78427420     0.32600
H508        H  0.20571566  0.27238144  0.78396629     0.43400
H509        H  0.02881688  0.27850306  0.77959330     0.36900
H510        H  0.11213897  0.31427801  0.80820663     0.33400
H511        H  0.34030685  0.39457086  0.78350276     0.25200
H512        H  0.16399464  0.21284174  0.81203784     0.31100
H513        H  0.98627111  0.20398552  0.80753368     0.37000
H514        H  0.26767911  0.45605780  0.77125249     0.31500
H515        H  0.13526634  0.43768733  0.76512798     0.30400
H516        H  0.04825086  0.41006265  0.77230892     0.32100
H517        H  0.95144838  0.25401115  0.78817532     0.31000
H518        H  0.23970249  0.32139694  0.76860203     0.35000
H519        H  0.09959038  0.19727270  0.76505188     0.27800
H520        H  0.20734638  0.47372331  0.81268041     0.32000
H521        H  0.97478284  0.28274329  0.80733248     0.34800
H522        H  0.18135749  0.46857272  0.77070446     0.27500
H523        H  0.14905652  0.24975328  0.76415841     0.40300
H524        H  0.26167929  0.30074356  0.80733272     0.30400
H525        H  0.32037977  0.38772579  0.79219115     0.38000
H526        H  0.98246385  0.31288691  0.78838399     0.29900
H527        H  0.11251715  0.21228805  0.81209328     0.29900
H528        H  0.14851239  0.43838956  0.81323737     0.30200
Zr529      Zr  0.57445969  0.80147199  0.88665147     2.17500
O530        O  0.53360711  0.73950307  0.89711743    -0.52200
O531        O  0.50816088  0.82192672  0.88517558    -0.75400
O532        O  0.58376504  0.84484981  0.89916384    -0.82200
O533        O  0.52046477  0.69878495  0.87096523    -0.83900
O534        O  0.66188995  0.91410820  0.89936807    -0.79500
O535        O  0.50664230  0.71788299  0.88338415    -0.91200
O536        O  0.52962203  0.87851340  0.87519898    -0.77100
O537        O  0.62199488  0.88949657  0.88424634    -0.86600
O538        O  0.56540988  0.81164799  0.87289795    -0.86300
O539        O  0.65912622  0.82644837  0.89050081    -0.73100
O540        O  0.60605811  0.75465542  0.87981901    -0.85200
Zr541      Zr  0.73212860  0.87948476  0.86707104     2.26400
Zr542      Zr  0.70713662  0.91467882  0.88751848     2.06300
Zr543      Zr  0.59955898  0.76739583  0.86604889     2.10000
Zr544      Zr  0.61316541  0.89985655  0.87059541     1.78800
O545        O  0.60903019  0.69621529  0.86212767    -0.94000
O546        O  0.62718829  0.97877876  0.87628084    -0.41800
O547        O  0.64736121  0.85560080  0.86384042    -0.78400
O548        O  0.69982394  0.92748302  0.87369545    -0.97100
O549        O  0.73995670  0.86866100  0.88083110    -0.90400
O550        O  0.68457558  0.79110041  0.86936335    -0.93300
C551        C  0.49918028  0.84967748  0.88055682     1.00500
C552        C  0.49470394  0.68853056  0.87737671     1.13400
C553        C  0.61828630  0.88536683  0.90240668     1.04200
O554        O  0.72441148  0.99973325  0.89024151    -0.95400
O555        O  0.79014495  0.98021696  0.88324230    -0.91200
O556        O  0.80141380  0.96141250  0.87068429    -0.84300
C557        C  0.81574971  0.98946363  0.87682941     1.10800
O558        O  0.65043864  0.71337828  0.89300017    -0.97400
Zr559      Zr  0.69081902  0.78075397  0.88328434     1.88900
O560        O  0.79326804  0.85012925  0.86815492    -0.74100
O561        O  0.76027794  0.91662290  0.89835723    -0.53300
O562        O  0.74129942  0.79565359  0.89515892    -0.98000
O563        O  0.67868989  0.70103874  0.87820057    -0.55200
O564        O  0.77401750  0.80245470  0.87925479    -0.74600
C565        C  0.80307532  0.82633541  0.87348744     0.97800
O566        O  0.78896236  0.92262891  0.85605529    -0.63400
O567        O  0.53503081  0.74647681  0.85603465    -0.58200
O568        O  0.70371210  0.86425638  0.85324393    -0.94900
O569        O  0.62698929  0.79368393  0.85258749    -0.93300
O570        O  0.56477011  0.88261747  0.85843819    -0.93700
O571        O  0.64588832  0.96647487  0.86070622    -0.92400
C572        C  0.66504616  0.83132978  0.84937125     1.16600
H573        H  0.53064925  0.79778203  0.87139420     0.32600
H574        H  0.71938042  0.96276536  0.87238238     0.43400
H575        H  0.69700486  0.77352439  0.86618868     0.36900
H576        H  0.66040622  0.82105627  0.89610416     0.33400
H577        H  0.60461589  0.98709388  0.87328045     0.25200
H578        H  0.79246239  0.92435090  0.89582367     0.31100
H579        H  0.77103376  0.82948811  0.89440585     0.37000
H580        H  0.56905364  0.85640768  0.85572026     0.31500
H581        H  0.51894459  0.70966920  0.85529951     0.30400
H582        H  0.57420047  0.66810244  0.86144209     0.32100
H583        H  0.70070812  0.70960785  0.87349818     0.31000
H584        H  0.67967145  0.97188227  0.85938996     0.35000
H585        H  0.79132864  0.95595402  0.85566567     0.27800
H586        H  0.51317017  0.75061470  0.90011608     0.32000
H587        H  0.67312403  0.69934060  0.89365142     0.34800
H588        H  0.50910410  0.75193303  0.85859137     0.27500
H589        H  0.82270441  0.92981163  0.85780866     0.40300
H590        H  0.69221552  0.99881703  0.88921685     0.30400
H591        H  0.61202368  0.96985957  0.88162548     0.38000
H592        H  0.64402065  0.68355462  0.87606836     0.19100
H593        H  0.76827600  0.94749173  0.90134657     0.29900
H594        H  0.56110322  0.74461223  0.90073171     0.30200
Zr595      Zr  0.58245456  0.77875335  0.79905958     2.17500
O596        O  0.52381211  0.72641623  0.80936774    -0.52200
O597        O  0.52042548  0.80644477  0.79717737    -0.75400
O598        O  0.60701099  0.81474700  0.81250642    -0.82200
O599        O  0.52241589  0.66923604  0.78445445    -0.83900
O600        O  0.68351932  0.88582824  0.81194358    -0.79500
O601        O  0.51644408  0.69196622  0.79705392    -0.91200
O602        O  0.54034434  0.85257402  0.78589573    -0.77100
O603        O  0.62722784  0.86467806  0.79502840    -0.86600
O604        O  0.57223064  0.77891134  0.78502667    -0.86300
O605        O  0.66836506  0.80598095  0.80256399    -0.73100
O606        O  0.61514533  0.72849715  0.79337651    -0.85200
Zr607      Zr  0.73726580  0.84741153  0.77897933     2.26400
Zr608      Zr  0.71300165  0.89246451  0.79851135     2.06300
Zr609      Zr  0.60588873  0.73041687  0.77932581     2.10000
Zr610      Zr  0.61841854  0.86436251  0.78097181     1.78800
O611        O  0.59967163  0.64821575  0.77899330    -0.94000
O612        O  0.63743929  0.95032844  0.78343770    -0.41800
O613        O  0.65158587  0.81632451  0.77503401    -0.78400
O614        O  0.70379220  0.89632237  0.78452910    -0.97100
O615        O  0.74734621  0.84504458  0.79286989    -0.90400
O616        O  0.69186962  0.76093444  0.78278641    -0.93300
C617        C  0.51168653  0.83084443  0.79180259     1.00500
C618        C  0.49957409  0.66180696  0.79114273     1.13400
C619        C  0.64530899  0.85245848  0.81577000     1.04200
O620        O  0.71132152  0.96949569  0.80127812    -0.95400
O621        O  0.79000515  0.95892082  0.79278235    -0.91200
O622        O  0.80831608  0.93168671  0.78139612    -0.84300
C623        C  0.81741344  0.96539634  0.78666755     1.10800
O624        O  0.66588224  0.70059798  0.80767648    -0.97400
Zr625      Zr  0.70185619  0.75898296  0.79661304     1.88900
O626        O  0.80698320  0.83387798  0.78159515    -0.74100
O627        O  0.78386159  0.91538541  0.80734441    -0.53300
O628        O  0.75328724  0.78429921  0.80854196    -0.98000
O629        O  0.69057029  0.67667237  0.79325953    -0.55200
O630        O  0.78690189  0.78375865  0.79242949    -0.74600
C631        C  0.81738491  0.81088575  0.78694589     0.97800
O632        O  0.76686366  0.89804553  0.76695421    -0.63400
O633        O  0.54892088  0.71276640  0.76821824    -0.58200
O634        O  0.72918954  0.79700466  0.76744848    -0.94900
O635        O  0.65025635  0.72866486  0.76730603    -0.93300
O636        O  0.56063742  0.83588313  0.76980702    -0.93700
O637        O  0.65029355  0.91818173  0.76933786    -0.92400
C638        C  0.69464307  0.75599521  0.76434406     1.16600
H639        H  0.53711670  0.76436125  0.78363705     0.32600
H640        H  0.72197631  0.93059702  0.78264449     0.43400
H641        H  0.70509315  0.74191919  0.78018816     0.36900
H642        H  0.67289646  0.80177639  0.80807892     0.33400
H643        H  0.60665636  0.95084119  0.78184480     0.25200
H644        H  0.78587590  0.94298258  0.81064305     0.31100
H645        H  0.78524940  0.81445018  0.80699728     0.37000
H646        H  0.57035900  0.81497622  0.76663030     0.31500
H647        H  0.53310986  0.67601916  0.76737947     0.30400
H648        H  0.57164582  0.62815292  0.77530712     0.32100
H649        H  0.70827035  0.68115718  0.78817744     0.31000
H650        H  0.68733637  0.93380639  0.76963581     0.35000
H651        H  0.73876399  0.88136635  0.76315108     0.27800
H652        H  0.51414763  0.74835025  0.81225883     0.32000
H653        H  0.68880540  0.68712844  0.80859962     0.34800
H654        H  0.52148773  0.71751554  0.77033288     0.27500
H655        H  0.76768235  0.92996833  0.76822122     0.40300
H656        H  0.67627027  0.95820418  0.80291388     0.30400
H657        H  0.63831178  0.95348565  0.78926458     0.38000
H658        H  0.65440269  0.65571566  0.79195633     0.29900
H659        H  0.77242976  0.88655958  0.81100932     0.29900
H660        H  0.54387349  0.71907777  0.81316831     0.30200
Zr661      Zr  0.17913795  0.77435050  0.88731495     2.17500
O662        O  0.23395795  0.79648470  0.89882363    -0.52200
O663        O  0.16814074  0.69106636  0.88537332    -0.75400
O664        O  0.13037204  0.73379841  0.89917859    -0.82200
O665        O  0.29049287  0.84000033  0.87330322    -0.83900
O666        O  0.05622165  0.73380458  0.89864923    -0.79500
O667        O  0.26558088  0.79553360  0.88480718    -0.91200
O668        O  0.11865155  0.65760728  0.87452996    -0.77100
O669        O  0.09239667  0.72887089  0.88380810    -0.86600
O670        O  0.17731440  0.76119181  0.87342576    -0.86300
O671        O  0.14561874  0.82732460  0.89100945    -0.73100
O672        O  0.22390730  0.85593881  0.88133393    -0.85200
Zr673      Zr  0.10094397  0.85005526  0.86697127     2.26400
Zr674      Zr  0.05911370  0.78251272  0.88697332     2.06300
Zr675      Zr  0.21996419  0.84221558  0.86738533     2.10000
Zr676      Zr  0.09056583  0.71490079  0.87002996     1.78800
O677        O  0.28502152  0.92650127  0.86354549    -0.94000
O678        O  0.01355599  0.64045253  0.87434221    -0.41800
O679        O  0.13339926  0.79565827  0.86399207    -0.78400
O680        O  0.05485044  0.76742732  0.87299166    -0.97100
O681        O  0.10263662  0.86356219  0.88086759    -0.90400
O682        O  0.18771332  0.89684463  0.87053856    -0.93300
C683        C  0.14630107  0.65655363  0.88014555     1.00500
C684        C  0.29837461  0.82023547  0.87942524     1.13400
C685        C  0.08670607  0.72184595  0.90193370     1.04200
O686        O  0.97399668  0.71179246  0.88833532    -0.95400
O687        O  0.99491086  0.80080876  0.88213692    -0.91200
O688        O  0.01591823  0.83170572  0.86965813    -0.84300
C689        C  0.98662070  0.81757353  0.87566710     1.10800
O690        O  0.24869386  0.93982503  0.89545367    -0.97400
Zr691      Zr  0.18882854  0.90759814  0.88457648     1.88900
O692        O  0.12533876  0.93933764  0.86823679    -0.74100
O693        O  0.05280467  0.82908283  0.89814100    -0.53300
O694        O  0.16003222  0.93328321  0.89616477    -0.98000
O695        O  0.27086567  0.97863824  0.88112365    -0.55200
O696        O  0.16389824  0.96598143  0.88012878    -0.74600
C697        C  0.14328841  0.97131996  0.87393710     0.97800
O698        O  0.06061933  0.86136743  0.85531818    -0.63400
O699        O  0.26039341  0.80794329  0.85901096    -0.58200
O700        O  0.12332311  0.84166418  0.85331682    -0.94900
O701        O  0.19631699  0.83998028  0.85366881    -0.93300
O702        O  0.11793273  0.69171891  0.85802060    -0.93700
O703        O  0.02698276  0.68394401  0.85966174    -0.92400
C704        C  0.15942125  0.83875427  0.84993014     1.16600
H705        H  0.19488073  0.74369154  0.87198040     0.32600
H706        H  0.02024876  0.75012448  0.87125793     0.43400
H707        H  0.20501514  0.92838737  0.86769791     0.36900
H708        H  0.14775227  0.83209672  0.89665488     0.33400
H709        H  0.01052549  0.61305555  0.87087896     0.25200
H710        H  0.05124334  0.85766995  0.89572367     0.31100
H711        H  0.17674931  0.97041844  0.89581858     0.37000
H712        H  0.09787634  0.65453020  0.85785384     0.31500
H713        H  0.27863392  0.83365722  0.85488708     0.30400
H714        H  0.29673861  0.92219562  0.85830048     0.32100
H715        H  0.26532831  0.99317420  0.87626336     0.31000
H716        H  0.03620077  0.71369026  0.85628949     0.35000
H717        H  0.02807684  0.82961730  0.85472483     0.27800
H718        H  0.22710097  0.76397428  0.90112057     0.32000
H719        H  0.26362132  0.91774300  0.89556897     0.34800
H720        H  0.23258331  0.77935214  0.85617123     0.27500
H721        H  0.05142380  0.88688508  0.85681207     0.40300
H722        H  0.97647134  0.68215744  0.88668715     0.30400
H723        H  0.02157785  0.63229877  0.87961522     0.38000
H724        H  0.29100215  0.96329981  0.87937089     0.29900
H725        H  0.01864009  0.80703538  0.90028604     0.29900
H726        H  0.22008130  0.81053520  0.90269918     0.30200
Zr727      Zr  0.21415916  0.80623835  0.79925432     2.17500
O728        O  0.27426851  0.81051861  0.80911900    -0.52200
O729        O  0.18784065  0.71644022  0.79782065    -0.75400
O730        O  0.18284186  0.79488150  0.81290147    -0.82200
O731        O  0.31859515  0.85727300  0.78386342    -0.83900
O732        O  0.11189013  0.80067280  0.81316249    -0.79500
O733        O  0.29797739  0.82280824  0.79614329    -0.91200
O734        O  0.14276978  0.68844853  0.78645782    -0.77100
O735        O  0.12663538  0.76313216  0.79639079    -0.86600
O736        O  0.20789990  0.79173361  0.78534348    -0.86300
O737        O  0.18801516  0.86550719  0.80293653    -0.73100
O738        O  0.26010427  0.88769798  0.79295194    -0.85200
Zr739      Zr  0.13485465  0.88468692  0.77963915     2.26400
Zr740      Zr  0.09989458  0.82180018  0.79991196     2.06300
Zr741      Zr  0.25209060  0.87202526  0.77902239     2.10000
Zr742      Zr  0.12047964  0.74972035  0.78242344     1.78800
O743        O  0.33622721  0.94266610  0.77667861    -0.94000
O744        O  0.04082909  0.68073879  0.78724557    -0.41800
O745        O  0.16453734  0.82902826  0.77574840    -0.78400
O746        O  0.08955402  0.80423573  0.78602236    -0.97100
O747        O  0.14292954  0.90137609  0.79345642    -0.90400
O748        O  0.22265440  0.92825953  0.78254697    -0.93300
C749        C  0.16577126  0.68328044  0.79235832     1.00500
C750        C  0.32746437  0.83940692  0.79015782     1.13400
C751        C  0.14646461  0.79576710  0.81656271     1.04200
O752        O  0.02324359  0.74358061  0.80301498    -0.95400
O753        O  0.03171829  0.83280909  0.79519056    -0.91200
O754        O  0.05176109  0.87074334  0.78312427    -0.84300
C755        C  0.02175165  0.85041541  0.78900730     1.10800
O756        O  0.29988313  0.97668120  0.80565614    -0.97400
Zr757      Zr  0.23027132  0.94434810  0.79628082     1.88900
O758        O  0.14666195  0.96749063  0.78195505    -0.74100
O759        O  0.08329500  0.86859474  0.80995645    -0.53300
O760        O  0.20983124  0.97058699  0.80868120    -0.98000
O761        O  0.30633071  0.01667866  0.79112086    -0.55200
O762        O  0.19772342  0.99941918  0.79268956    -0.74600
C763        C  0.16879308  0.00078607  0.78733347     0.97800
O764        O  0.08130223  0.85994084  0.76793353    -0.63400
O765        O  0.25664734  0.82429069  0.76785946    -0.58200
O766        O  0.17980227  0.92385524  0.76739774    -0.94900
O767        O  0.25018350  0.91667118  0.76718064    -0.93300
O768        O  0.13998644  0.72065790  0.77024524    -0.93700
O769        O  0.05484005  0.71956637  0.77239208    -0.92400
C770        C  0.22100533  0.93122722  0.76417864     1.16600
H771        H  0.22298392  0.77192946  0.78384062     0.32600
H772        H  0.05443909  0.78741000  0.78459710     0.43400
H773        H  0.24007381  0.95967944  0.77970677     0.36900
H774        H  0.19433024  0.87485991  0.80843376     0.33400
H775        H  0.03898040  0.65010958  0.78499188     0.25200
H776        H  0.04791375  0.84596150  0.81155804     0.31100
H777        H  0.22316038  0.00720442  0.80810508     0.37000
H778        H  0.15125973  0.74914614  0.76650550     0.31500
H779        H  0.29263818  0.84186295  0.76635804     0.30400
H780        H  0.34666737  0.93508037  0.77156006     0.32100
H781        H  0.29437248  0.03481590  0.78772103     0.31000
H782        H  0.05006967  0.74860199  0.77129667     0.35000
H783        H  0.09013557  0.83735601  0.76504492     0.27800
H784        H  0.25661466  0.77889040  0.81219874     0.32000
H785        H  0.30912544  0.01205985  0.80665927     0.34800
H786        H  0.25028835  0.79188788  0.77011774     0.27500
H787        H  0.04655470  0.83711040  0.76978081     0.40300
H788        H  0.00318997  0.73449602  0.79808969     0.30400
H789        H  0.04581761  0.67843792  0.79298306     0.38000
H790        H  0.32080551  0.00234868  0.78739997     0.29900
H791        H  0.08269655  0.89634309  0.80707122     0.29900
H792        H  0.27909930  0.83745829  0.81284297     0.30200
Zr793      Zr  0.51998765  0.42027760  0.55489741     2.17500
O794        O  0.57174658  0.43928259  0.56673654    -0.52200
O795        O  0.50483235  0.33543368  0.55296665    -0.75400
O796        O  0.46927928  0.38185625  0.56657803    -0.82200
O797        O  0.62863891  0.47204284  0.54066478    -0.83900
O798        O  0.40189309  0.39404310  0.56660224    -0.79500
O799        O  0.60648160  0.43968120  0.55308235    -0.91200
O800        O  0.45423862  0.30373748  0.54218178    -0.77100
O801        O  0.43324809  0.37888874  0.55132969    -0.86600
O802        O  0.51816612  0.40630876  0.54099735    -0.86300
O803        O  0.48986216  0.47642271  0.55843920    -0.73100
O804        O  0.56972712  0.50118652  0.54892535    -0.85200
Zr805      Zr  0.45006022  0.50367118  0.53457350     2.26400
Zr806      Zr  0.40345912  0.43585277  0.55428460     2.06300
Zr807      Zr  0.56477749  0.48737055  0.53500714     2.10000
Zr808      Zr  0.43120571  0.36461844  0.53756340     1.78800
O809        O  0.63452664  0.57258539  0.53311541    -0.94000
O810        O  0.35026705  0.29495204  0.54180037    -0.41800
O811        O  0.47794099  0.44538817  0.53155952    -0.78400
O812        O  0.39953863  0.42089170  0.54031919    -0.97100
O813        O  0.45259773  0.51702277  0.54847204    -0.90400
O814        O  0.53688816  0.54566894  0.53810718    -0.93300
C815        C  0.48114148  0.30113436  0.54777297     1.00500
C816        C  0.63726814  0.45684191  0.54723565     1.13400
C817        C  0.42899442  0.37732658  0.56967294     1.04200
O818        O  0.32076932  0.36128752  0.55570783    -0.95400
O819        O  0.33972729  0.45385823  0.54907138    -0.91200
O820        O  0.36569106  0.48937659  0.53694076    -0.84300
C821        C  0.33397411  0.47293259  0.54264936     1.10800
O822        O  0.59788283  0.57696425  0.56306613    -0.97400
Zr823      Zr  0.53894149  0.55638729  0.55215470     1.88900
O824        O  0.47730705  0.59312436  0.53652270    -0.74100
O825        O  0.38764169  0.48185068  0.56455124    -0.53300
O826        O  0.52382134  0.59118689  0.56408428    -0.98000
O827        O  0.61934141  0.62589797  0.54765213    -0.55200
O828        O  0.51496330  0.61668377  0.54852525    -0.74600
C829        C  0.49508105  0.62378951  0.54239738     0.97800
O830        O  0.41350627  0.52046408  0.52295599    -0.63400
O831        O  0.60539342  0.46411282  0.52476750    -0.58200
O832        O  0.47481306  0.49741470  0.52096404    -0.94900
O833        O  0.54279298  0.48665514  0.52124986    -0.93300
O834        O  0.45476656  0.33619912  0.52571209    -0.93700
O835        O  0.36877532  0.33439552  0.52703848    -0.92400
C836        C  0.50848916  0.49056373  0.51754040     1.16600
H837        H  0.53393473  0.38683039  0.53956578     0.32600
H838        H  0.36528088  0.40528192  0.53845978     0.43400
H839        H  0.55524823  0.57696410  0.53526469     0.36900
H840        H  0.49200054  0.48134946  0.56410353     0.33400
H841        H  0.34989276  0.26451795  0.53976022     0.25200
H842        H  0.35797234  0.45580348  0.56745689     0.31100
H843        H  0.48683618  0.57615354  0.56430957     0.37000
H844        H  0.49099279  0.36061449  0.52498231     0.31500
H845        H  0.64203589  0.48601912  0.52558650     0.30400
H846        H  0.63877021  0.57639949  0.52730875     0.32100
H847        H  0.63268414  0.64888063  0.55223895     0.31000
H848        H  0.37844330  0.36437427  0.52370349     0.35000
H849        H  0.38117577  0.48916805  0.52198975     0.27800
H850        H  0.56144348  0.40641509  0.56925608     0.32000
H851        H  0.61608168  0.55865752  0.56189147     0.34800
H852        H  0.59820068  0.42988592  0.52620532     0.27500
H853        H  0.40398010  0.54548137  0.52465281     0.40300
H854        H  0.30870755  0.35106061  0.55022567     0.30400
H855        H  0.35308624  0.29297045  0.54760011     0.38000
H856        H  0.61063425  0.64452283  0.54377558     0.29900
H857        H  0.41592446  0.49261524  0.56829742     0.29900
H858        H  0.55974495  0.45641529  0.57036228     0.30200
Zr859      Zr  0.55484415  0.46263582  0.46632054     2.17500
O860        O  0.60877350  0.45266836  0.47590588    -0.52200
O861        O  0.52762779  0.37281173  0.46446429    -0.75400
O862        O  0.52574654  0.45261971  0.48003785    -0.82200
O863        O  0.65809943  0.50890812  0.45080386    -0.83900
O864        O  0.45576193  0.45986277  0.48061970    -0.79500
O865        O  0.64112593  0.48489408  0.46366725    -0.91200
O866        O  0.47840044  0.34472648  0.45354125    -0.77100
O867        O  0.46718184  0.42124923  0.46351459    -0.86600
O868        O  0.54825362  0.44878395  0.45240401    -0.86300
O869        O  0.53002320  0.52274205  0.47028667    -0.73100
O870        O  0.60229633  0.54483930  0.46027196    -0.85200
Zr871      Zr  0.47834784  0.54448301  0.44715052     2.26400
Zr872      Zr  0.44176261  0.48059597  0.46734972     2.06300
Zr873      Zr  0.59464885  0.52970122  0.44631831     2.10000
Zr874      Zr  0.46080720  0.40888568  0.44951617     1.78800
O875        O  0.67998036  0.59996801  0.44482620    -0.94000
O876        O  0.38002408  0.34014061  0.45400126    -0.41800
O877        O  0.50706454  0.48846585  0.44296321    -0.78400
O878        O  0.43165583  0.46407316  0.45343497    -0.97100
O879        O  0.48590017  0.56048461  0.46099297    -0.90400
O880        O  0.56607618  0.58631528  0.45007820    -0.93300
C881        C  0.50250579  0.33904822  0.45921124     1.00500
C882        C  0.66889330  0.49641787  0.45748642     1.13400
C883        C  0.49020344  0.45390780  0.48387249     1.04200
O884        O  0.36547359  0.40207727  0.47046266    -0.95400
O885        O  0.37382948  0.49207689  0.46240804    -0.91200
O886        O  0.39525999  0.53147254  0.45044479    -0.84300
C887        C  0.36463483  0.51080076  0.45626033     1.10800
O888        O  0.64419723  0.63147980  0.47284968    -0.97400
Zr889      Zr  0.57320066  0.60220719  0.46379449     1.88900
O890        O  0.49153793  0.62778725  0.44934175    -0.74100
O891        O  0.42388282  0.52912900  0.47689540    -0.53300
O892        O  0.55619848  0.62761859  0.47656341    -0.98000
O893        O  0.64735627  0.67759763  0.45886673    -0.55200
O894        O  0.54066086  0.65804221  0.46030842    -0.74600
C895        C  0.51331809  0.66070131  0.45477601     0.97800
O896        O  0.42356109  0.51780048  0.43560651    -0.63400
O897        O  0.59929823  0.48294441  0.43503056    -0.58200
O898        O  0.52553345  0.58646433  0.43525665    -0.94900
O899        O  0.59508735  0.57788696  0.43471002    -0.93300
O900        O  0.47878180  0.37432726  0.43781232    -0.93700
O901        O  0.39641315  0.38599105  0.43940499    -0.92400
C902        C  0.56646794  0.59390864  0.43193752     1.16600
H903        H  0.56230741  0.42818016  0.45082428     0.32600
H904        H  0.39658309  0.44774265  0.45196200     0.43400
H905        H  0.58410503  0.61810669  0.44732512     0.36900
H906        H  0.53694199  0.53201416  0.47577498     0.33400
H907        H  0.37346945  0.31140652  0.45055606     0.25200
H908        H  0.39738891  0.50371725  0.48036855     0.31100
H909        H  0.52958714  0.63613039  0.47551822     0.37000
H910        H  0.48887196  0.40068559  0.43371867     0.31500
H911        H  0.57326391  0.48071038  0.43132539     0.30400
H912        H  0.69457010  0.59009546  0.44043039     0.32100
H913        H  0.63479900  0.69254079  0.45491825     0.31000
H914        H  0.41205972  0.41291545  0.43538154     0.35000
H915        H  0.43637698  0.50010062  0.43228137     0.27800
H916        H  0.58710011  0.42073156  0.47874646     0.32000
H917        H  0.65358032  0.66643767  0.47423643     0.34800
H918        H  0.63159260  0.50639483  0.43243496     0.27500
H919        H  0.39055834  0.49044993  0.43746862     0.40300
H920        H  0.35547974  0.40734627  0.47578881     0.30400
H921        H  0.38680256  0.33072291  0.45926841     0.38000
H922        H  0.66591267  0.66487881  0.45573111     0.29900
H923        H  0.45418711  0.54585597  0.48028688     0.29900
H924        H  0.61822290  0.47954746  0.47988973     0.30200
Zr925      Zr  0.55280556  0.05469907  0.55459866     2.17500
O926        O  0.53416685  0.08567237  0.56667304    -0.52200
O927        O  0.63435806  0.12793469  0.55233528    -0.75400
O928        O  0.59954805  0.04847130  0.56578208    -0.82200
O929        O  0.49930717  0.10759278  0.54014543    -0.83900
O930        O  0.59545714  0.97243428  0.56549686    -0.79500
O931        O  0.53111620  0.11979516  0.55260224    -0.91200
O932        O  0.67036759  0.11012987  0.54204370    -0.77100
O933        O  0.59757141  0.01304713  0.55094825    -0.86600
O934        O  0.56550224  0.06677496  0.54066569    -0.86300
O935        O  0.50020064  0.96835895  0.55834991    -0.73100
O936        O  0.47063862  0.01866018  0.54879632    -0.85200
Zr937      Zr  0.47626086  0.90036987  0.53433814     2.26400
Zr938      Zr  0.54426683  0.92619915  0.55416373     2.06300
Zr939      Zr  0.48369047  0.02748549  0.53483409     2.10000
Zr940      Zr  0.61141934  0.02596052  0.53720104     1.78800
O941        O  0.39660892  0.00795768  0.53376619    -0.94000
O942        O  0.68523962  0.02235217  0.54156581    -0.41800
O943        O  0.53022365  0.98730464  0.53119745    -0.78400
O944        O  0.55926502  0.93765945  0.54020414    -0.97100
O945        O  0.46299525  0.88919449  0.54824633    -0.90400
O946        O  0.42974362  0.94061022  0.53800128    -0.93300
C947        C  0.67037200  0.13966793  0.54743389     1.00500
C948        C  0.51424122  0.13252311  0.54662000     1.13400
C949        C  0.61075114  0.01618433  0.56851329     1.04200
O950        O  0.61453517  0.91068040  0.55513828    -0.95400
O951        O  0.52339599  0.84261811  0.54958276    -0.91200
O952        O  0.49749547  0.83524564  0.53684078    -0.84300
C953        C  0.50964253  0.81900107  0.54295501     1.10800
O954        O  0.39285565  0.96325805  0.56321547    -0.97400
Zr955      Zr  0.41956823  0.93188203  0.55208051     1.88900
O956        O  0.38690831  0.83566263  0.53593965    -0.74100
O957        O  0.49932235  0.87444575  0.56553854    -0.53300
O958        O  0.39473144  0.87936257  0.56388333    -0.98000
O959        O  0.34513424  0.93735885  0.54870071    -0.55200
O960        O  0.36086847  0.84852857  0.54784334    -0.74600
C961        C  0.35518041  0.82216689  0.54169444     0.97800
O962        O  0.46671584  0.83965242  0.52418425    -0.63400
O963        O  0.49594911  0.08641453  0.52423171    -0.58200
O964        O  0.47957863  0.92995619  0.52062527    -0.94900
O965        O  0.48604297  0.00675069  0.52105972    -0.93300
O966        O  0.63612496  0.07925674  0.52549315    -0.93700
O967        O  0.64317303  0.99603456  0.52654543    -0.92400
C968        C  0.48412915  0.96973070  0.51724802     1.16600
H969        H  0.58337071  0.10185631  0.53916951     0.32600
H970        H  0.57671933  0.92048495  0.53846303     0.43400
H971        H  0.39812750  0.92619746  0.53517949     0.36900
H972        H  0.49600242  0.96597769  0.56402443     0.33400
H973        H  0.69467543  0.04025659  0.54670290     0.25200
H974        H  0.46701462  0.84765166  0.56335864     0.31100
H975        H  0.35768827  0.85817573  0.56352655     0.37000
H976        H  0.60421530  0.07543631  0.52342538     0.31500
H977        H  0.47587075  0.10239155  0.52568293     0.30400
H978        H  0.39257274  0.02761247  0.53806076     0.32100
H979        H  0.31876665  0.91373358  0.55237600     0.31000
H980        H  0.61494913  0.96210283  0.52527180     0.35000
H981        H  0.43724563  0.83382852  0.52100183     0.27800
H982        H  0.56727769  0.11172541  0.56873433     0.32000
H983        H  0.42147211  0.99753478  0.56414515     0.34800
H984        H  0.53148630  0.11336404  0.52468678     0.27500
H985        H  0.49604087  0.85736882  0.52060450     0.40300
H986        H  0.61123713  0.89581500  0.56045508     0.30400
H987        H  0.67219548  0.98664643  0.54296710     0.38000
H988        H  0.33412434  0.92104328  0.54346481     0.29900
H989        H  0.51799667  0.85695946  0.56693155     0.29900
H990        H  0.52219372  0.05756268  0.57049416     0.30200
Zr991      Zr  0.51767019  0.05999259  0.46641900     2.17500
O992        O  0.50890960  0.11116042  0.47667290    -0.52200
O993        O  0.60789030  0.12349724  0.46510455    -0.75400
O994        O  0.52905557  0.03868972  0.48005323    -0.82200
O995        O  0.47099474  0.11811713  0.45088491    -0.83900
O996        O  0.51933742  0.96038600  0.48008728    -0.79500
O997        O  0.50629772  0.13045657  0.46309969    -0.91200
O998        O  0.63561276  0.10680159  0.45366973    -0.77100
O999        O  0.56105875  0.01622178  0.46315098    -0.86600
O1000       O  0.53115922  0.06937897  0.45246081    -0.86300
O1001       O  0.45832643  0.97402225  0.46988821    -0.73100
O1002       O  0.43574973  0.02537801  0.46023624    -0.85200
Zr1003     Zr  0.43853732  0.90422368  0.44653724     2.26400
Zr1004     Zr  0.50272598  0.93064526  0.46658748     2.06300
Zr1005     Zr  0.45056780  0.03426519  0.44626521     2.10000
Zr1006     Zr  0.57339333  0.02485846  0.44914382     1.78800
O1007       O  0.37767298  0.04552848  0.44520638    -0.94000
O1008       O  0.64393049  0.01422733  0.45307032    -0.41800
O1009       O  0.49352217  0.98990610  0.44264734    -0.78400
O1010       O  0.51965027  0.93893754  0.45266958    -0.97100
O1011       O  0.42234619  0.89456140  0.46036430    -0.90400
O1012       O  0.39497113  0.94827516  0.44969024    -0.93300
C1013       C  0.64113845  0.13471766  0.45962517     1.00500
C1014       C  0.49063567  0.14473328  0.45715320     1.13400
C1015       C  0.52590242  0.00007941  0.48363152     1.04200
O1016       O  0.58532729  0.94053856  0.46904392    -0.95400
O1017       O  0.48929806  0.85048303  0.46195307    -0.91200
O1018       O  0.45401759  0.83545648  0.44970528    -0.84300
C1019       C  0.47216027  0.82387554  0.45567940     1.10800
O1020       O  0.35197538  0.97514096  0.47374516    -0.97400
Zr1021     Zr  0.37902757  0.93842013  0.46340279     1.88900
O1022       O  0.35591915  0.83308743  0.44886750    -0.74100
O1023       O  0.46312700  0.86051166  0.47583038    -0.53300
O1024       O  0.34892989  0.88757980  0.47535936    -0.98000
O1025       O  0.30769090  0.94621431  0.45888617    -0.55200
O1026       O  0.32094321  0.85243163  0.45913149    -0.74600
C1027       C  0.32022733  0.82216994  0.45380199     0.97800
O1028       O  0.45826998  0.87244908  0.43462497    -0.63400
O1029       O  0.49362801  0.08579041  0.43477628    -0.58200
O1030       O  0.39662548  0.91037865  0.43470827    -0.94900
O1031       O  0.40440933  0.98814654  0.43444788    -0.93300
O1032       O  0.60396990  0.07969419  0.43761613    -0.93700
O1033       O  0.60005933  0.99192791  0.43819439    -0.92400
C1034       C  0.38888387  0.94401716  0.43152732     1.16600
H1035       H  0.55121846  0.10426295  0.45100544     0.32600
H1036       H  0.53630029  0.92051191  0.45114565     0.43400
H1037       H  0.36338966  0.93454248  0.44693095     0.36900
H1038       H  0.44876681  0.97046179  0.47537694     0.33400
H1039       H  0.67305205  0.04026906  0.45006602     0.25200
H1040       H  0.49105933  0.86277040  0.47906753     0.31100
H1041       H  0.35919481  0.86189429  0.47475800     0.37000
H1042       H  0.57647105  0.06385052  0.43369298     0.31500
H1043       H  0.47390362  0.10215060  0.43335164     0.30400
H1044       H  0.38152075  0.06182491  0.44000262     0.32100
H1045       H  0.29332858  0.92311532  0.45433334     0.31000
H1046       H  0.58333490  0.95521322  0.43910945     0.35000
H1047       H  0.47290589  0.90121872  0.43090558     0.27800
H1048       H  0.53980446  0.12508303  0.47993497     0.32000
H1049       H  0.31527996  0.95226678  0.47434061     0.34800
H1050       H  0.52580221  0.11336192  0.43684053     0.27500
H1051       H  0.48713585  0.86808374  0.43605208     0.40300
H1052       H  0.59106329  0.92322963  0.46456853     0.30400
H1053       H  0.65097301  0.02586341  0.45862640     0.38000
H1054       H  0.32292285  0.98026866  0.45655033     0.29900
H1055       H  0.44342713  0.86913520  0.47949531     0.29900
H1056       H  0.48132238  0.08730460  0.48016574     0.30200
Zr1057     Zr  0.92167800  0.45555847  0.55497031     2.17500
O1058       O  0.89329151  0.40169676  0.56664554    -0.52200
O1059       O  0.85140714  0.47003070  0.55337489    -0.75400
O1060       O  0.93005719  0.50440859  0.56674320    -0.82200
O1061       O  0.87263591  0.34648904  0.54085206    -0.83900
O1062       O  0.00679784  0.57541321  0.56678076    -0.79500
O1063       O  0.85363935  0.37053011  0.55249696    -0.91200
O1064       O  0.86878601  0.52062687  0.54260812    -0.77100
O1065       O  0.96622343  0.54287177  0.55186057    -0.86600
O1066       O  0.91023019  0.45972951  0.54110333    -0.86300
O1067       O  0.00748321  0.48522728  0.55864470    -0.73100
O1068       O  0.95492716  0.40873092  0.54859053    -0.85200
Zr1069     Zr  0.07607786  0.53196356  0.53490650     2.26400
Zr1070     Zr  0.05257989  0.57250452  0.55508812     2.06300
Zr1071     Zr  0.94641081  0.41595726  0.53469905     2.10000
Zr1072     Zr  0.95405759  0.54723632  0.53813726     1.78800
O1073       O  0.96224260  0.34856107  0.53088749    -0.94000
O1074       O  0.96109399  0.62545958  0.54290272    -0.41800
O1075       O  0.99010459  0.50354618  0.53170515    -0.78400
O1076       O  0.04170396  0.57934241  0.54118447    -0.97100
O1077       O  0.08635639  0.52621499  0.54875743    -0.90400
O1078       O  0.03255583  0.44439134  0.53794177    -0.93300
C1079       C  0.83984034  0.49320392  0.54822290     1.00500
C1080       C  0.84542705  0.33804284  0.54706530     1.13400
C1081       C  0.96306954  0.54639433  0.56980528     1.04200
O1082       O  0.07102873  0.65859719  0.55712143    -0.95400
O1083       O  0.13624637  0.63522902  0.55031379    -0.91200
O1084       O  0.14212409  0.61710562  0.53747215    -0.84300
C1085       C  0.15910251  0.64504951  0.54360087     1.10800
O1086       O  0.00537336  0.38332065  0.56335887    -0.97400
Zr1087     Zr  0.04057292  0.43902770  0.55196177     1.88900
O1088       O  0.13808792  0.50321312  0.53605143    -0.74100
O1089       O  0.10691301  0.57672422  0.56591696    -0.53300
O1090       O  0.09861389  0.46069391  0.56302788    -0.98000
O1091       O  0.01825261  0.35336902  0.54835688    -0.55200
O1092       O  0.11960776  0.45299362  0.54684194    -0.74600
C1093       C  0.14756543  0.47678452  0.54094963     0.97800
O1094       O  0.14144072  0.58297643  0.52533318    -0.63400
O1095       O  0.87716534  0.38062714  0.52524476    -0.58200
O1096       O  0.04563571  0.51144776  0.52111794    -0.94900
O1097       O  0.96859794  0.44132284  0.52099654    -0.93300
O1098       O  0.90322537  0.52594574  0.52618760    -0.93700
O1099       O  0.98726671  0.61068189  0.52775263    -0.92400
C1100       C  0.00610353  0.47789688  0.51746299     1.16600
H1101       H  0.87507757  0.44360690  0.53967693     0.32600
H1102       H  0.05972067  0.61418416  0.53957999     0.43400
H1103       H  0.04581901  0.42681894  0.53494664     0.36900
H1104       H  0.00923231  0.48153566  0.56428688     0.33400
H1105       H  0.93059020  0.62499223  0.54087731     0.25200
H1106       H  0.11169751  0.60574108  0.56912695     0.31100
H1107       H  0.12871654  0.49263868  0.56146604     0.37000
H1108       H  0.89015276  0.48948748  0.52544959     0.31500
H1109       H  0.86300626  0.34373959  0.52547873     0.30400
H1110       H  0.92894436  0.31757231  0.53115860     0.32100
H1111       H  0.04430586  0.34801504  0.55086791     0.31000
H1112       H  0.01442048  0.60685100  0.52527497     0.35000
H1113       H  0.14800330  0.55898260  0.52237941     0.27800
H1114       H  0.86952681  0.40959667  0.56937408     0.32000
H1115       H  0.02571308  0.36669637  0.56402560     0.34800
H1116       H  0.85092959  0.38638181  0.52759800     0.27500
H1117       H  0.12588567  0.59528775  0.52146852     0.40300
H1118       H  0.04812480  0.66255826  0.55345412     0.30400
H1119       H  0.95564026  0.62094945  0.54868500     0.38000
H1120       H  0.02515414  0.35434455  0.54262532     0.29900
H1121       H  0.08603730  0.54700829  0.56927273     0.29900
H1122       H  0.92301377  0.41498738  0.57016753     0.30200
Zr1123     Zr  0.92113302  0.42823157  0.46659471     2.17500
O1124       O  0.86217212  0.37452689  0.47674623    -0.52200
O1125       O  0.85821865  0.45553753  0.46457244    -0.75400
O1126       O  0.94387427  0.46131076  0.48022819    -0.82200
O1127       O  0.86336127  0.31942336  0.45198196    -0.83900
O1128       O  0.02072514  0.53167897  0.47993123    -0.79500
O1129       O  0.85383714  0.34309805  0.46431357    -0.91200
O1130       O  0.87450757  0.49700410  0.45285752    -0.77100
O1131       O  0.96615261  0.51445057  0.46284222    -0.86600
O1132       O  0.91118070  0.42885216  0.45259666    -0.86300
O1133       O  0.00676536  0.45361328  0.47015078    -0.73100
O1134       O  0.95477135  0.37876480  0.46077549    -0.85200
Zr1135     Zr  0.07665994  0.49940775  0.44656368     2.26400
Zr1136     Zr  0.05143461  0.54054802  0.46646301     2.06300
Zr1137     Zr  0.94578289  0.38166681  0.44676005     2.10000
Zr1138     Zr  0.95656356  0.51455637  0.44876484     1.78800
O1139       O  0.93620717  0.29813208  0.44590941    -0.94000
O1140       O  0.96489487  0.59629950  0.45153391    -0.41800
O1141       O  0.99090000  0.46804328  0.44265139    -0.78400
O1142       O  0.04183582  0.54632179  0.45248631    -0.97100
O1143       O  0.08674979  0.49496246  0.46044409    -0.90400
O1144       O  0.03191878  0.41228026  0.45010121    -0.93300
C1145       C  0.84689967  0.47639426  0.45891376     1.00500
C1146       C  0.83884311  0.31228297  0.45849622     1.13400
C1147       C  0.98213611  0.49793862  0.48367295     1.04200
O1148       O  0.05367362  0.61870951  0.46983666    -0.95400
O1149       O  0.12800771  0.60883739  0.46109629    -0.91200
O1150       O  0.14481089  0.58535902  0.44922487    -0.84300
C1151       C  0.15465855  0.61737512  0.45483383     1.10800
O1152       O  0.00046615  0.34117837  0.47362449    -0.97400
Zr1153     Zr  0.04163498  0.40830870  0.46387834     1.88900
O1154       O  0.14706907  0.48673200  0.44900110    -0.74100
O1155       O  0.12176615  0.55816860  0.47513544    -0.53300
O1156       O  0.08788855  0.42619427  0.47629068    -0.98000
O1157       O  0.03836816  0.33110933  0.45939920    -0.55200
O1158       O  0.12873843  0.43831857  0.46004185    -0.74600
C1159       C  0.15852788  0.46531575  0.45446488     0.97800
O1160       O  0.10954469  0.55168959  0.43472553    -0.63400
O1161       O  0.89007983  0.36698394  0.43558274    -0.58200
O1162       O  0.06762971  0.44983890  0.43477261    -0.94900
O1163       O  0.98984625  0.37976331  0.43478709    -0.93300
O1164       O  0.90528992  0.48400735  0.43687477    -0.93700
O1165       O  0.99336021  0.57404592  0.43787786    -0.92400
C1166       C  0.03358833  0.40824094  0.43172458     1.16600
H1167       H  0.87612902  0.41379076  0.45117078     0.32600
H1168       H  0.05956713  0.58092124  0.45074720     0.43400
H1169       H  0.04532617  0.39384949  0.44740874     0.36900
H1170       H  0.01058489  0.44851805  0.47566073     0.33400
H1171       H  0.93629435  0.59586614  0.44874706     0.25200
H1172       H  0.12423370  0.58451223  0.47878701     0.31100
H1173       H  0.12202235  0.45431970  0.47510210     0.37000
H1174       H  0.88997711  0.50558418  0.43629628     0.31500
H1175       H  0.87811795  0.33168834  0.43400629     0.30400
H1176       H  0.91129237  0.28102232  0.44164354     0.32100
H1177       H  0.06462730  0.34149454  0.45527613     0.31000
H1178       H  0.01001421  0.56011597  0.43453773     0.35000
H1179       H  0.08421248  0.53417281  0.43053359     0.27800
H1180       H  0.84953819  0.39499664  0.47932859     0.32000
H1181       H  0.02415003  0.32876453  0.47466019     0.34800
H1182       H  0.86012657  0.36629881  0.43789468     0.27500
H1183       H  0.10683131  0.58194411  0.43582389     0.40300
H1184       H  0.03814151  0.62575590  0.46525044     0.30400
H1185       H  0.95648020  0.59504547  0.45721130     0.38000
H1186       H  0.00612745  0.31248514  0.45651535     0.29900
H1187       H  0.10940251  0.52774686  0.47847245     0.29900
H1188       H  0.88226040  0.36923683  0.48082176     0.30200
Zr1189     Zr  0.15145443  0.25624858  0.27963047     2.17500
O1190       O  0.10066663  0.22344062  0.26770834    -0.52200
O1191       O  0.16230238  0.18491465  0.28227548    -0.75400
O1192       O  0.20202951  0.25971500  0.26836936    -0.82200
O1193       O  0.04137007  0.21093717  0.29338202    -0.83900
O1194       O  0.27152264  0.33771401  0.26784198    -0.79500
O1195       O  0.06436744  0.19171284  0.28169135    -0.91200
O1196       O  0.21453800  0.20397304  0.29280771    -0.77100
O1197       O  0.23795580  0.29840193  0.28321930    -0.86600
O1198       O  0.15265331  0.24721107  0.29360495    -0.86300
O1199       O  0.18550168  0.34175037  0.27538271    -0.73100
O1200       O  0.10558153  0.29333736  0.28509876    -0.85200
Zr1201     Zr  0.22767027  0.41332475  0.29915301     2.26400
Zr1202     Zr  0.27174144  0.38462453  0.27959227     2.06300
Zr1203     Zr  0.10925838  0.28642017  0.29912101     2.10000
Zr1204     Zr  0.23940847  0.28894590  0.29706569     1.78800
O1205       O  0.04254510  0.30560555  0.30176910    -0.94000
O1206       O  0.31841164  0.29637352  0.29261438    -0.41800
O1207       O  0.19575637  0.32734328  0.30276475    -0.78400
O1208       O  0.27491742  0.37651372  0.29366920    -0.97100
O1209       O  0.22654885  0.42181786  0.28515443    -0.90400
O1210       O  0.14116889  0.37224176  0.29536630    -0.93300
C1211       C  0.18572483  0.17377892  0.28743248     1.00500
C1212       C  0.03242440  0.18342885  0.28721782     1.13400
C1213       C  0.24306566  0.29302067  0.26511103     1.04200
O1214       O  0.35423490  0.39144407  0.27900357    -0.95400
O1215       O  0.33362557  0.46919163  0.28408224    -0.91200
O1216       O  0.31334207  0.47919658  0.29658853    -0.84300
C1217       C  0.34187787  0.49491482  0.29048085     1.10800
O1218       O  0.07952358  0.34218713  0.27056969    -0.97400
Zr1219     Zr  0.14080251  0.37896982  0.28123006     1.88900
O1220       O  0.20047999  0.47578110  0.29713671    -0.74100
O1221       O  0.28784273  0.44133080  0.26849765    -0.53300
O1222       O  0.16873106  0.42844269  0.26910738    -0.98000
O1223       O  0.06184018  0.37609831  0.28443629    -0.55200
O1224       O  0.16728044  0.46387603  0.28481048    -0.74600
C1225       C  0.18485126  0.48975708  0.29110007     0.97800
O1226       O  0.27405104  0.47805862  0.30906290    -0.63400
O1227       O  0.06410932  0.21354047  0.30774814    -0.58200
O1228       O  0.20436148  0.38350273  0.31297976    -0.94900
O1229       O  0.13060504  0.30977338  0.31290200    -0.93300
O1230       O  0.21381693  0.23698920  0.30892688    -0.93700
O1231       O  0.29944716  0.32025863  0.30793180    -0.92400
C1232       C  0.16792970  0.34555833  0.31655607     1.16600
H1233       H  0.13544035  0.21233954  0.29522558     0.32600
H1234       H  0.30932768  0.39431221  0.29549357     0.43400
H1235       H  0.12348569  0.38668836  0.29800926     0.36900
H1236       H  0.18369747  0.34299467  0.26967539     0.33400
H1237       H  0.32464481  0.27513135  0.29632420     0.25200
H1238       H  0.31798969  0.44418986  0.26586295     0.31100
H1239       H  0.14677199  0.44336857  0.26856047     0.37000
H1240       H  0.18611480  0.24083240  0.31117468     0.31500
H1241       H  0.04419806  0.22223824  0.31136104     0.30400
H1242       H  0.04288308  0.30956861  0.30758174     0.32100
H1243       H  0.05849939  0.39758700  0.28039560     0.31000
H1244       H  0.30077294  0.35182353  0.30959083     0.35000
H1245       H  0.24839656  0.48086856  0.31221059     0.27800
H1246       H  0.10563310  0.19549734  0.26591793     0.32000
H1247       H  0.09361391  0.32698177  0.26694975     0.34800
H1248       H  0.09009355  0.21291963  0.31113718     0.27500
H1249       H  0.28889390  0.46377689  0.31272723     0.40300
H1250       H  0.36705217  0.39857672  0.28449681     0.30400
H1251       H  0.31029326  0.27782194  0.28754171     0.38000
H1252       H  0.06821277  0.39538457  0.28940538     0.29900
H1253       H  0.25996405  0.42221865  0.26474201     0.29900
H1254       H  0.11735000  0.24999388  0.26364600     0.30200
Zr1255     Zr  0.11553507  0.24697968  0.36725465     2.17500
O1256       O  0.06587127  0.18678225  0.35694458    -0.52200
O1257       O  0.14133838  0.18258416  0.36894087    -0.75400
O1258       O  0.14644134  0.27428583  0.35359055    -0.82200
O1259       O  0.00989824  0.18654822  0.38249146    -0.83900
O1260       O  0.21841930  0.35004041  0.35385333    -0.79500
O1261       O  0.02843296  0.18244722  0.36958674    -0.91200
O1262       O  0.18725394  0.20016894  0.38020247    -0.77100
O1263       O  0.20262662  0.29275099  0.37055506    -0.86600
O1264       O  0.11947704  0.23578819  0.38115473    -0.86300
O1265       O  0.14080089  0.33331229  0.36417782    -0.73100
O1266       O  0.06674025  0.27930604  0.37368238    -0.85200
Zr1267     Zr  0.18882191  0.39960369  0.38785373     2.26400
Zr1268     Zr  0.22858493  0.37887108  0.36746574     2.06300
Zr1269     Zr  0.07266305  0.26870408  0.38762504     2.10000
Zr1270     Zr  0.20620827  0.28193582  0.38451232     1.78800
O1271       O  0.98664480  0.25096201  0.38957937    -0.94000
O1272       O  0.28573242  0.29031962  0.38013659    -0.41800
O1273       O  0.15955753  0.31368795  0.39136649    -0.78400
O1274       O  0.23662969  0.36789841  0.38131143    -0.97100
O1275       O  0.18279502  0.41182599  0.37411218    -0.90400
O1276       O  0.10161504  0.35484371  0.38455993    -0.93300
C1277       C  0.16427878  0.17182056  0.37433421     1.00500
C1278       C  0.00008741  0.16465555  0.37570201     1.13400
C1279       C  0.18319309  0.31257882  0.35013251     1.04200
O1280       O  0.30759863  0.38181114  0.36440646    -0.95400
O1281       O  0.29419595  0.45853762  0.37281550    -0.91200
O1282       O  0.27056733  0.47223553  0.38489870    -0.84300
C1283       C  0.30167617  0.48501227  0.37909232     1.10800
O1284       O  0.03050262  0.33275930  0.36084247    -0.97400
Zr1285     Zr  0.09590946  0.36657546  0.37093399     1.88900
O1286       O  0.17414507  0.46932560  0.38619293    -0.74100
O1287       O  0.24358697  0.44584609  0.35820057    -0.53300
O1288       O  0.11850669  0.41858651  0.35907065    -0.98000
O1289       O  0.01606067  0.35615261  0.37563702    -0.55200
O1290       O  0.12181901  0.45100866  0.37566799    -0.74600
C1291       C  0.14987304  0.48042065  0.38118456     0.97800
O1292       O  0.24401384  0.42732037  0.39937345    -0.63400
O1293       O  0.06915977  0.21644075  0.39871748    -0.58200
O1294       O  0.14046932  0.39033275  0.39976972    -0.94900
O1295       O  0.06935108  0.31347782  0.39941998    -0.93300
O1296       O  0.18307206  0.22956928  0.39633035    -0.93700
O1297       O  0.27058092  0.31990025  0.39469784    -0.92400
C1298       C  0.09770125  0.35692596  0.40257938     1.16600
H1299       H  0.10487677  0.20057422  0.38248546     0.32600
H1300       H  0.27145563  0.38666382  0.38289982     0.43400
H1301       H  0.08315040  0.36786930  0.38735923     0.36900
H1302       H  0.13475094  0.33843694  0.35877671     0.33400
H1303       H  0.28947945  0.26514738  0.38327520     0.25200
H1304       H  0.21418168  0.43125446  0.35461340     0.31100
H1305       H  0.14754155  0.45132115  0.36064178     0.37000
H1306       H  0.20541480  0.21490291  0.39631244     0.31500
H1307       H  0.03446240  0.20197855  0.40078566     0.30400
H1308       H  0.97612283  0.23281409  0.39468890     0.32100
H1309       H  0.02439103  0.37915991  0.38019705     0.31000
H1310       H  0.25584273  0.33218131  0.39872742     0.35000
H1311       H  0.22774275  0.39919396  0.40318932     0.27800
H1312       H  0.08945130  0.18010350  0.35387886     0.32000
H1313       H  0.02031353  0.35843775  0.36009566     0.34800
H1314       H  0.07004490  0.18758841  0.39627950     0.27500
H1315       H  0.27453163  0.42657661  0.39765909     0.40300
H1316       H  0.29762460  0.34851875  0.36208479     0.30400
H1317       H  0.27949563  0.27691861  0.37467252     0.38000
H1318       H  0.99836920  0.32206659  0.37798342     0.29900
H1319       H  0.23938185  0.47056967  0.36138185     0.29900
H1320       H  0.05517247  0.20480699  0.35327275     0.30200
Zr1321     Zr  0.11291233  0.85560520  0.27945819     2.17500
O1322       O  0.13648453  0.91445019  0.26848505    -0.52200
O1323       O  0.02905319  0.84230255  0.28158468    -0.75400
O1324       O  0.07307806  0.80841287  0.26735884    -0.82200
O1325       O  0.17568296  0.96406923  0.29414626    -0.83900
O1326       O  0.08085875  0.73841036  0.26708468    -0.79500
O1327       O  0.13463334  0.94212285  0.28233140    -0.91200
O1328       O  0.99618459  0.78883061  0.29202526    -0.77100
O1329       O  0.07048513  0.76799043  0.28243381    -0.86600
O1330       O  0.09819340  0.84973144  0.29336023    -0.86300
O1331       O  0.16858027  0.82589029  0.27543130    -0.73100
O1332       O  0.19317084  0.90117495  0.28576304    -0.85200
Zr1333     Zr  0.19378033  0.77843098  0.29901344     2.26400
Zr1334     Zr  0.12692663  0.73854474  0.27895447     2.06300
Zr1335     Zr  0.17830247  0.89295654  0.29969393     2.10000
Zr1336     Zr  0.05529794  0.76205262  0.29620811     1.78800
O1337       O  0.26064809  0.96138299  0.30360316    -0.94000
O1338       O  0.98261154  0.68375945  0.29184647    -0.41800
O1339       O  0.13552297  0.80536191  0.30245092    -0.78400
O1340       O  0.11134121  0.73079752  0.29293690    -0.97100
O1341       O  0.20773532  0.78432613  0.28510678    -0.90400
O1342       O  0.23636893  0.86594812  0.29602460    -0.93300
C1343       C  0.99456618  0.81808510  0.28673525     1.00500
C1344       C  0.15854528  0.97380398  0.28789323     1.13400
C1345       C  0.06566425  0.76724386  0.26411288     1.04200
O1346       O  0.05478540  0.65490106  0.27695643    -0.95400
O1347       O  0.14638516  0.67441145  0.28350271    -0.91200
O1348       O  0.17548187  0.69369643  0.29610438    -0.84300
C1349       C  0.16175468  0.66503700  0.29002821     1.10800
O1350       O  0.26700092  0.92136668  0.26989195    -0.97400
Zr1351     Zr  0.24832657  0.87147349  0.28195717     1.88900
O1352       O  0.28468068  0.80856220  0.29751869    -0.74100
O1353       O  0.17582881  0.73241513  0.26811040    -0.53300
O1354       O  0.28491459  0.84301233  0.27180405    -0.98000
O1355       O  0.30880373  0.95942932  0.28470840    -0.55200
O1356       O  0.31646729  0.86428593  0.28739184    -0.74600
C1357       C  0.32101486  0.83864661  0.29293985     0.97800
O1358       O  0.21346284  0.74079894  0.31018213    -0.63400
O1359       O  0.13914671  0.92327683  0.30910497    -0.58200
O1360       O  0.18256709  0.79599056  0.31282826    -0.94900
O1361       O  0.17834990  0.86759220  0.31327976    -0.93300
O1362       O  0.03355952  0.78415525  0.30885351    -0.93700
O1363       O  0.01874875  0.69340119  0.30574598    -0.92400
C1364       C  0.17743437  0.82956041  0.31661838     1.16600
H1365       H  0.07948393  0.86580121  0.29493244     0.32600
H1366       H  0.09504443  0.69587180  0.29449878     0.43400
H1367       H  0.26746734  0.88411420  0.29891790     0.36900
H1368       H  0.17360270  0.82953887  0.26976760     0.33400
H1369       H  0.95306763  0.68734999  0.29315256     0.25200
H1370       H  0.20911672  0.74235683  0.27044869     0.31100
H1371       H  0.32168851  0.86637525  0.27205987     0.37000
H1372       H  0.05924205  0.81988846  0.30967653     0.31500
H1373       H  0.16470604  0.95886715  0.31008441     0.30400
H1374       H  0.25559329  0.97054556  0.30900245     0.32100
H1375       H  0.34014658  0.96569808  0.28205286     0.31000
H1376       H  0.04398665  0.68253427  0.30635856     0.35000
H1377       H  0.18250386  0.70837418  0.31123087     0.27800
H1378       H  0.10441143  0.90663080  0.26592259     0.32000
H1379       H  0.30337516  0.93543566  0.26886768     0.34800
H1380       H  0.11209978  0.92476480  0.30614199     0.27500
H1381       H  0.23792618  0.73140989  0.30814416     0.40300
H1382       H  0.04287838  0.64181794  0.28235218     0.30400
H1383       H  0.98425593  0.68490780  0.28600578     0.38000
H1384       H  0.31633033  0.96049449  0.29041769     0.29900
H1385       H  0.16052518  0.69588544  0.26713016     0.29900
H1386       H  0.15394346  0.90393667  0.26466798     0.30200
Zr1387     Zr  0.13864997  0.87157340  0.36818837     2.17500
O1388       O  0.12491934  0.92509757  0.35904176    -0.52200
O1389       O  0.04817850  0.84156144  0.36964884    -0.75400
O1390       O  0.13456050  0.84537255  0.35431359    -0.82200
O1391       O  0.18898263  0.97863359  0.38324460    -0.83900
O1392       O  0.14580003  0.77766891  0.35387670    -0.79500
O1393       O  0.15666088  0.95658635  0.37087285    -0.91200
O1394       O  0.02024971  0.79268332  0.38062354    -0.77100
O1395       O  0.09802593  0.78395512  0.37112354    -0.86600
O1396       O  0.12400705  0.86501664  0.38211163    -0.86300
O1397       O  0.20086796  0.84881720  0.36460824    -0.73100
O1398       O  0.21990692  0.92094608  0.37444186    -0.85200
Zr1399     Zr  0.22166821  0.79788349  0.38777257     2.26400
Zr1400     Zr  0.15895568  0.76032273  0.36748515     2.06300
Zr1401     Zr  0.20416411  0.91271938  0.38838158     2.10000
Zr1402     Zr  0.08526842  0.77783126  0.38514621     1.78800
O1403       O  0.27570095  0.99548935  0.39117487    -0.94000
O1404       O  0.01730626  0.69509831  0.38121606    -0.41800
O1405       O  0.16426819  0.82532641  0.39174171    -0.78400
O1406       O  0.14156512  0.74965986  0.38140729    -0.97100
O1407       O  0.23857547  0.80642568  0.37395582    -0.90400
O1408       O  0.26247619  0.88568468  0.38492547    -0.93300
C1409       C  0.01442259  0.81628954  0.37489026     1.00500
C1410       C  0.17176991  0.98663038  0.37679040     1.13400
C1411       C  0.14022082  0.81214638  0.35051143     1.04200
O1412       O  0.07629568  0.68841021  0.36478575    -0.95400
O1413       O  0.17089560  0.69296564  0.37258677    -0.91200
O1414       O  0.20808099  0.71442854  0.38471596    -0.84300
C1415       C  0.18807022  0.68373972  0.37891102     1.10800
O1416       O  0.30786125  0.96307252  0.36177963    -0.97400
Zr1417     Zr  0.27919455  0.89398698  0.37122455     1.88900
O1418       O  0.30570000  0.81285867  0.38540858    -0.74100
O1419       O  0.19803464  0.72923607  0.35821086    -0.53300
O1420       O  0.30721749  0.87378517  0.35897332    -0.98000
O1421       O  0.34967125  0.97280640  0.37598087    -0.55200
O1422       O  0.33806482  0.86635618  0.37494396    -0.74600
C1423       C  0.33972356  0.83705867  0.38020324     0.97800
O1424       O  0.20071532  0.74613797  0.39964490    -0.63400
O1425       O  0.15139916  0.91873523  0.39858588    -0.58200
O1426       O  0.25885651  0.84292963  0.40000129    -0.94900
O1427       O  0.24769541  0.91099520  0.40045869    -0.93300
O1428       O  0.04941926  0.79558338  0.39671283    -0.93700
O1429       O  0.06681483  0.72110413  0.39634556    -0.92400
C1430       C  0.26391595  0.88282194  0.40334997     1.16600
H1431       H  0.10276220  0.87858305  0.38357284     0.32600
H1432       H  0.12541433  0.71467302  0.38291529     0.43400
H1433       H  0.29363732  0.90395617  0.38781009     0.36900
H1434       H  0.21226732  0.85657380  0.35921677     0.33400
H1435       H  0.98741752  0.69080547  0.38414483     0.25200
H1436       H  0.17058681  0.70620263  0.35462874     0.31100
H1437       H  0.34422235  0.88982097  0.35947643     0.37000
H1438       H  0.05373943  0.82931902  0.39574365     0.31500
H1439       H  0.15133060  0.89709085  0.40292609     0.30400
H1440       H  0.26591767  0.00705057  0.39597104     0.32100
H1441       H  0.36459846  0.96334055  0.38036888     0.31000
H1442       H  0.06056808  0.68880035  0.39406165     0.35000
H1443       H  0.16994287  0.71410287  0.39832444     0.27800
H1444       H  0.09751465  0.90228918  0.35544608     0.32000
H1445       H  0.34249298  0.97182482  0.36027297     0.34800
H1446       H  0.17150698  0.95342052  0.40065205     0.27500
H1447       H  0.22756558  0.73736230  0.40012644     0.40300
H1448       H  0.07298616  0.66206109  0.36852052     0.30400
H1449       H  0.01027589  0.69898654  0.37563058     0.38000
H1450       H  0.33381034  0.99039693  0.37856683     0.29900
H1451       H  0.22045793  0.75855194  0.35488541     0.29900
H1452       H  0.15537559  0.94205008  0.35570164     0.30200
Zr1453     Zr  0.75087359  0.89731973  0.27969589     2.17500
O1454       O  0.78653610  0.87950448  0.26809300    -0.52200
O1455       O  0.82035529  0.98108390  0.28190450    -0.75400
O1456       O  0.74094465  0.93811490  0.26794940    -0.82200
O1457       O  0.79931036  0.83523480  0.29361526    -0.83900
O1458       O  0.66334564  0.93046159  0.26794996    -0.79500
O1459       O  0.81743364  0.87689740  0.28187351    -0.91200
O1460       O  0.79984735  0.01323237  0.29244819    -0.77100
O1461       O  0.70527295  0.93906181  0.28292644    -0.86600
O1462       O  0.76038996  0.91111281  0.29366884    -0.86300
O1463       O  0.66537768  0.84131809  0.27579610    -0.73100
O1464       O  0.71811923  0.81641643  0.28576854    -0.85200
Zr1465     Zr  0.59558409  0.81404278  0.29960716     2.26400
Zr1466     Zr  0.61932750  0.88208558  0.27965813     2.06300
Zr1467     Zr  0.72592377  0.83046363  0.29972125     2.10000
Zr1468     Zr  0.71472075  0.95312467  0.29670124     1.78800
O1469       O  0.71120344  0.74849847  0.30406989    -0.94000
O1470       O  0.69877206  0.01767724  0.29141207    -0.41800
O1471       O  0.68136392  0.87287469  0.30290201    -0.78400
O1472       O  0.62778953  0.89653554  0.29365617    -0.97100
O1473       O  0.58582890  0.80092783  0.28564699    -0.90400
O1474       O  0.64056326  0.77176823  0.29623984    -0.93300
C1475       C  0.83045445  0.01523471  0.28708405     1.00500
C1476       C  0.82618288  0.85323145  0.28736663     1.13400
C1477       C  0.70700060  0.94589071  0.26488210     1.04200
O1478       O  0.60621070  0.95352521  0.27797730    -0.95400
O1479       O  0.53651804  0.86263338  0.28444029    -0.91200
O1480       O  0.52693326  0.82936244  0.29676242    -0.84300
C1481       C  0.51175065  0.84463233  0.29089555     1.10800
O1482       O  0.66923020  0.74186137  0.27086767    -0.97400
Zr1483     Zr  0.63291238  0.76135823  0.28219441     1.88900
O1484       O  0.53293645  0.72419633  0.29797591    -0.74100
O1485       O  0.56579330  0.83616753  0.26852753    -0.53300
O1486       O  0.58045829  0.72214981  0.27064589    -0.98000
O1487       O  0.64872247  0.69478249  0.28651488    -0.55200
O1488       O  0.54999829  0.69960519  0.28630615    -0.74600
C1489       C  0.52202394  0.69217194  0.29233627     0.97800
O1490       O  0.54138928  0.79984816  0.31103642    -0.63400
O1491       O  0.80177222  0.86688260  0.30784037    -0.58200
O1492       O  0.62298067  0.81859569  0.31344608    -0.94900
O1493       O  0.70319074  0.83325273  0.31339793    -0.93300
O1494       O  0.76647030  0.99993308  0.30794631    -0.93700
O1495       O  0.67583771  0.97084729  0.30787994    -0.92400
C1496       C  0.66397634  0.82791998  0.31698752     1.16600
H1497       H  0.79532571  0.93036241  0.29522862     0.32600
H1498       H  0.60880356  0.91214022  0.29537069     0.43400
H1499       H  0.62749523  0.74009640  0.29901479     0.36900
H1500       H  0.66353679  0.83669900  0.27012941     0.33400
H1501       H  0.71760351  0.04680684  0.29496702     0.25200
H1502       H  0.53733670  0.80595153  0.27093341     0.31100
H1503       H  0.56568407  0.74354033  0.26939909     0.37000
H1504       H  0.77573259  0.03536966  0.30695980     0.31500
H1505       H  0.79256759  0.84673976  0.31276813     0.30400
H1506       H  0.73376546  0.75581918  0.30867494     0.32100
H1507       H  0.68554054  0.70925697  0.28597093     0.31000
H1508       H  0.64778364  0.93756954  0.30951029     0.35000
H1509       H  0.54095387  0.83161889  0.31181675     0.27800
H1510       H  0.80602681  0.91186676  0.26525759     0.32000
H1511       H  0.70593469  0.76075434  0.27183091     0.34800
H1512       H  0.80682732  0.90004801  0.30947732     0.27500
H1513       H  0.50686197  0.77507853  0.30931474     0.40300
H1514       H  0.60711080  0.96603624  0.28340230     0.30400
H1515       H  0.71759653  0.02822824  0.28636018     0.38000
H1516       H  0.63403173  0.66886886  0.28232305     0.29900
H1517       H  0.55097668  0.85683445  0.26681604     0.29900
H1518       H  0.75739965  0.85866721  0.26463987     0.30200
Zr1519     Zr  0.74257963  0.84438320  0.36839425     2.17500
O1520       O  0.79542170  0.83779698  0.35820054    -0.52200
O1521       O  0.80798792  0.93409870  0.36950163    -0.75400
O1522       O  0.71878465  0.85254093  0.35465045    -0.82200
O1523       O  0.79859699  0.79532360  0.38377091    -0.83900
O1524       O  0.63980418  0.84146757  0.35482407    -0.79500
O1525       O  0.80993866  0.82760980  0.37135116    -0.91200
O1526       O  0.79421793  0.96451123  0.38090746    -0.77100
O1527       O  0.70090788  0.88997636  0.37153131    -0.86600
O1528       O  0.75417352  0.86038268  0.38228905    -0.86300
O1529       O  0.65597104  0.78549395  0.36547669    -0.73100
O1530       O  0.70725378  0.76379076  0.37509549    -0.85200
Zr1531     Zr  0.58901475  0.77111419  0.38899509     2.26400
Zr1532     Zr  0.61440943  0.83203280  0.36854353     2.06300
Zr1533     Zr  0.71822719  0.78124157  0.38897931     2.10000
Zr1534     Zr  0.71143126  0.90458543  0.38549603     1.78800
O1535       O  0.73279360  0.71125753  0.39136653    -0.94000
O1536       O  0.70197521  0.97468459  0.38090200    -0.41800
O1537       O  0.67563967  0.82612380  0.39251204    -0.78400
O1538       O  0.62500714  0.85100650  0.38238573    -0.97100
O1539       O  0.57738825  0.75287037  0.37522475    -0.90400
O1540       O  0.63142684  0.72577941  0.38597875    -0.93300
C1541       C  0.82089565  0.96828314  0.37486186     1.00500
C1542       C  0.82404013  0.81206946  0.37732773     1.13400
C1543       C  0.67887378  0.84709524  0.35116739     1.04200
O1544       O  0.62567369  0.91496521  0.36584229    -0.95400
O1545       O  0.53629189  0.82198067  0.37364834    -0.91200
O1546       O  0.52240070  0.79021421  0.38614134    -0.84300
C1547       C  0.51102491  0.80801842  0.38009886     1.10800
O1548       O  0.65757318  0.67487904  0.36316620    -0.97400
Zr1549     Zr  0.61974738  0.70770593  0.37236371     1.88900
O1550       O  0.51544279  0.68862803  0.38699406    -0.74100
O1551       O  0.54813226  0.79620693  0.35860484    -0.53300
O1552       O  0.56969764  0.67933151  0.36032167    -0.98000
O1553       O  0.62072102  0.63371801  0.37742554    -0.55200
O1554       O  0.53295835  0.65408945  0.37643877    -0.74600
C1555       C  0.50326068  0.65399090  0.38179624     0.97800
O1556       O  0.55631437  0.79454015  0.40037299    -0.63400
O1557       O  0.77152293  0.82968551  0.39999543    -0.58200
O1558       O  0.59820878  0.73276913  0.40107969    -0.94900
O1559       O  0.67376689  0.73577664  0.40090024    -0.93300
O1560       O  0.76605232  0.93594677  0.39703289    -0.93700
O1561       O  0.67760754  0.93568615  0.39567282    -0.92400
C1562       C  0.63095447  0.72299947  0.40409185     1.16600
H1563       H  0.78940462  0.87992737  0.38360532     0.32600
H1564       H  0.60787246  0.86893122  0.38389924     0.43400
H1565       H  0.61748660  0.69452339  0.38887714     0.36900
H1566       H  0.65174976  0.77424889  0.36008092     0.33400
H1567       H  0.72685736  0.00395994  0.38399854     0.25200
H1568       H  0.53457879  0.81945711  0.35826541     0.31100
H1569       H  0.54998287  0.64224348  0.36077719     0.37000
H1570       H  0.74686732  0.91207299  0.40133158     0.31500
H1571       H  0.78854203  0.81103335  0.40168775     0.30400
H1572       H  0.75170660  0.71957062  0.39640831     0.32100
H1573       H  0.59291612  0.61831339  0.38131300     0.31000
H1574       H  0.64928302  0.90501169  0.39801216     0.35000
H1575       H  0.58397258  0.80850947  0.40428776     0.27800
H1576       H  0.80993827  0.86960508  0.35516508     0.32000
H1577       H  0.63102537  0.63999241  0.36196868     0.34800
H1578       H  0.79850382  0.86092667  0.39758494     0.27500
H1579       H  0.53023369  0.76231103  0.40268677     0.40300
H1580       H  0.61264572  0.92325644  0.37062375     0.30400
H1581       H  0.71563749  0.98155783  0.37545454     0.38000
H1582       H  0.65175819  0.64729306  0.38063810     0.29900
H1583       H  0.52083468  0.76513679  0.36101750     0.29900
H1584       H  0.77223273  0.81134560  0.35449531     0.30200
Zr1585     Zr  0.88629863  0.74191976  0.22110998     2.17500
O1586       O  0.86250965  0.77134319  0.23284969    -0.52200
O1587       O  0.96964837  0.81335903  0.21931907    -0.75400
O1588       O  0.92995721  0.73520238  0.23270206    -0.82200
O1589       O  0.82640234  0.79110931  0.20686907    -0.83900
O1590       O  0.92340631  0.65811170  0.23270428    -0.79500
O1591       O  0.86536703  0.80743366  0.21883630    -0.91200
O1592       O  0.00614738  0.79212384  0.20952941    -0.77100
O1593       O  0.93009193  0.69858659  0.21785424    -0.86600
O1594       O  0.90204834  0.75383573  0.20723468    -0.86300
O1595       O  0.83116284  0.65586458  0.22476179    -0.73100
O1596       O  0.80661155  0.70828366  0.21461553    -0.85200
Zr1597     Zr  0.80941805  0.58844572  0.20074322     2.26400
Zr1598     Zr  0.87457780  0.61220616  0.22098835     2.06300
Zr1599     Zr  0.82253048  0.71793488  0.20072480     2.10000
Zr1600     Zr  0.94596863  0.71049983  0.20413033     1.78800
O1601       O  0.73946259  0.70339309  0.19711159    -0.94000
O1602       O  0.01420356  0.69656815  0.20817547    -0.41800
O1603       O  0.86651118  0.67471203  0.19769695    -0.78400
O1604       O  0.89131067  0.62256158  0.20701186    -0.97100
O1605       O  0.79455668  0.57799038  0.21461799    -0.90400
O1606       O  0.76528810  0.63166304  0.20392283    -0.93300
C1607       C  0.00677528  0.82263384  0.21477870     1.00500
C1608       C  0.84266837  0.81668360  0.21326760     1.13400
C1609       C  0.93902796  0.70204131  0.23572872     1.04200
O1610       O  0.94523731  0.59798365  0.22276098    -0.95400
O1611       O  0.85295707  0.52860261  0.21626029    -0.91200
O1612       O  0.82794040  0.52190994  0.20346044    -0.84300
C1613       C  0.83813445  0.50476840  0.20966085     1.10800
O1614       O  0.72847632  0.66464665  0.22783488    -0.97400
Zr1615     Zr  0.75230533  0.62254905  0.21795739     1.88900
O1616       O  0.71961853  0.52393681  0.20244213    -0.74100
O1617       O  0.82616039  0.55580005  0.23172982    -0.53300
O1618       O  0.72264461  0.57250281  0.23000113    -0.98000
O1619       O  0.67890212  0.62700619  0.21355703    -0.55200
O1620       O  0.69346400  0.53810409  0.21422346    -0.74600
C1621       C  0.68748895  0.51109175  0.20814313     0.97800
O1622       O  0.79327530  0.53377857  0.18932503    -0.63400
O1623       O  0.85916792  0.78872389  0.19153906    -0.58200
O1624       O  0.81871893  0.61885181  0.18697301    -0.94900
O1625       O  0.82558123  0.69603903  0.18696726    -0.93300
O1626       O  0.98134171  0.77163409  0.19344521    -0.93700
O1627       O  0.97184522  0.68134058  0.19262438    -0.92400
C1628       C  0.82457791  0.65860226  0.18339017     1.16600
H1629       H  0.92144563  0.78906189  0.20585058     0.32600
H1630       H  0.90825646  0.60468888  0.20535085     0.43400
H1631       H  0.73433781  0.61826154  0.20096348     0.36900
H1632       H  0.82560571  0.65353830  0.23041401     0.33400
H1633       H  0.04391569  0.72200839  0.20521365     0.25200
H1634       H  0.84822679  0.54366979  0.23386998     0.31100
H1635       H  0.72956837  0.54456595  0.22919468     0.37000
H1636       H  0.95170528  0.76897872  0.19067376     0.31500
H1637       H  0.83399358  0.79979349  0.19106125     0.30400
H1638       H  0.74532544  0.72511502  0.19244357     0.32100
H1639       H  0.66532049  0.60429398  0.20893415     0.31000
H1640       H  0.94033778  0.65245742  0.19060625     0.35000
H1641       H  0.82479774  0.53307090  0.18841060     0.27800
H1642       H  0.89452211  0.79873772  0.23500391     0.32000
H1643       H  0.69293991  0.64058113  0.22915199     0.34800
H1644       H  0.88772933  0.81633021  0.19440390     0.27500
H1645       H  0.76869014  0.49940466  0.19114717     0.40300
H1646       H  0.96529819  0.61106906  0.21785926     0.30400
H1647       H  0.02115787  0.70799011  0.21374400     0.38000
H1648       H  0.69277322  0.66126163  0.21133927     0.29900
H1649       H  0.82525709  0.57785522  0.23591277     0.29900
H1650       H  0.85120601  0.74367490  0.23674544     0.30200
Zr1651     Zr  0.85994830  0.74162695  0.13260211     2.17500
O1652       O  0.86220328  0.79965491  0.14269132    -0.52200
O1653       O  0.94890714  0.80779401  0.13056291    -0.75400
O1654       O  0.87108749  0.72000689  0.14627005    -0.82200
O1655       O  0.80147674  0.79486414  0.11818880    -0.83900
O1656       O  0.86650807  0.64391087  0.14595683    -0.79500
O1657       O  0.83894593  0.80676086  0.13020620    -0.91200
O1658       O  0.97574911  0.79386768  0.11881788    -0.77100
O1659       O  0.90647067  0.70195986  0.12873646    -0.86600
O1660       O  0.86999849  0.75210175  0.11861962    -0.86300
O1661       O  0.80404291  0.65448816  0.13604196    -0.73100
O1662       O  0.77609797  0.70375591  0.12692596    -0.85200
Zr1663     Zr  0.78342050  0.58819931  0.11235222     2.26400
Zr1664     Zr  0.85209704  0.61555562  0.13226266     2.06300
Zr1665     Zr  0.78792324  0.71479115  0.11289699     2.10000
Zr1666     Zr  0.91466857  0.71094324  0.11463789     1.78800
O1667       O  0.71040035  0.71776530  0.11152537    -0.94000
O1668       O  0.98978755  0.70567488  0.11742641    -0.41800
O1669       O  0.83357266  0.67459052  0.10855785    -0.78400
O1670       O  0.86516794  0.62469115  0.11826327    -0.97100
O1671       O  0.77098658  0.57687039  0.12625580    -0.90400
O1672       O  0.73676321  0.62787768  0.11612741    -0.93300
C1673       C  0.98115395  0.82096787  0.12486832     1.00500
C1674       C  0.82044234  0.82030092  0.12456552     1.13400
C1675       C  0.86978601  0.68182086  0.14969964     1.04200
O1676       O  0.93848664  0.63276273  0.13305043    -0.95400
O1677       O  0.83377508  0.53338882  0.12752106    -0.91200
O1678       O  0.79606404  0.51771826  0.11543665    -0.84300
C1679       C  0.81449205  0.50596748  0.12135337     1.10800
O1680       O  0.69207602  0.64869287  0.14006984    -0.97400
Zr1681     Zr  0.72369637  0.61541278  0.12986897     1.88900
O1682       O  0.70113635  0.51551595  0.11408361    -0.74100
O1683       O  0.82698380  0.54654170  0.14160721    -0.53300
O1684       O  0.69892463  0.56598830  0.14200568    -0.98000
O1685       O  0.64596626  0.61120512  0.12544033    -0.55200
O1686       O  0.67293806  0.52737881  0.12589104    -0.74600
C1687       C  0.66994113  0.50051417  0.11985762     0.97800
O1688       O  0.81581486  0.56664368  0.10073847    -0.63400
O1689       O  0.83141047  0.77385809  0.10218117    -0.58200
O1690       O  0.74024464  0.59435773  0.10064428    -0.94900
O1691       O  0.74302243  0.66991500  0.10092928    -0.93300
O1692       O  0.93884255  0.76535219  0.10304948    -0.93700
O1693       O  0.93736312  0.67347356  0.10382825    -0.92400
C1694       C  0.73010034  0.62706346  0.09771636     1.16600
H1695       H  0.88833576  0.78728721  0.11722398     0.32600
H1696       H  0.88227432  0.60717779  0.11651488     0.43400
H1697       H  0.70471434  0.61295764  0.11345104     0.36900
H1698       H  0.79417400  0.64974208  0.14153178     0.33400
H1699       H  0.01642190  0.73227869  0.11411703     0.25200
H1700       H  0.85595993  0.55662667  0.14518623     0.31100
H1701       H  0.72167261  0.55188130  0.14233534     0.37000
H1702       H  0.97513880  0.77735916  0.10231543     0.31500
H1703       H  0.83611404  0.75371065  0.09804850     0.30400
H1704       H  0.72036602  0.74978587  0.10874407     0.32100
H1705       H  0.63049680  0.58277838  0.12166557     0.31000
H1706       H  0.91767287  0.67390594  0.09922276     0.35000
H1707       H  0.83294368  0.59827098  0.09765227     0.27800
H1708       H  0.89458691  0.81221741  0.14550333     0.32000
H1709       H  0.65616906  0.62311966  0.14079829     0.34800
H1710       H  0.80592533  0.78121217  0.09995718     0.27500
H1711       H  0.84375887  0.56220752  0.10270121     0.40300
H1712       H  0.94323789  0.61766685  0.12818514     0.30400
H1713       H  0.99914160  0.71818487  0.12290782     0.38000
H1714       H  0.65697086  0.64159333  0.12214791     0.29900
H1715       H  0.80045636  0.54665127  0.14493209     0.29900
H1716       H  0.83589154  0.77887969  0.14660266     0.30200
Zr1717     Zr  0.25494294  0.14017847  0.22139495     2.17500
O1718       O  0.21657830  0.08295281  0.23252185    -0.52200
O1719       O  0.18551806  0.15562097  0.21952149    -0.75400
O1720       O  0.26505054  0.18688987  0.23352036    -0.82200
O1721       O  0.20517346  0.03072394  0.20719796    -0.83900
O1722       O  0.34189239  0.25802711  0.23330464    -0.79500
O1723       O  0.18783867  0.05495569  0.21895202    -0.91200
O1724       O  0.20699621  0.21087380  0.20933360    -0.77100
O1725       O  0.30160016  0.22787819  0.21856954    -0.86600
O1726       O  0.24496665  0.14691839  0.20754280    -0.86300
O1727       O  0.34021064  0.16701366  0.22514375    -0.73100
O1728       O  0.28655308  0.09229384  0.21491234    -0.85200
Zr1729     Zr  0.40958368  0.21421051  0.20133301     2.26400
Zr1730     Zr  0.38742288  0.25457698  0.22168622     2.06300
Zr1731     Zr  0.27807684  0.10078566  0.20104587     2.10000
Zr1732     Zr  0.29149409  0.23496084  0.20487544     1.78800
O1733       O  0.29192079  0.03306745  0.19662790    -0.94000
O1734       O  0.30837836  0.31557941  0.21024535    -0.41800
O1735       O  0.32397791  0.18850867  0.19829334    -0.78400
O1736       O  0.37844600  0.26382206  0.20780800    -0.97100
O1737       O  0.41955937  0.20721990  0.21517392    -0.90400
O1738       O  0.36361658  0.12650798  0.20427064    -0.93300
C1739       C  0.17598311  0.18143123  0.21458289     1.00500
C1740       C  0.17847065  0.02263973  0.21345544     1.13400
C1741       C  0.29874252  0.22887998  0.23647355     1.04200
O1742       O  0.40461417  0.33994026  0.22407709    -0.95400
O1743       O  0.47121029  0.31729765  0.21696822    -0.91200
O1744       O  0.47899969  0.29768789  0.20428683    -0.84300
C1745       C  0.49558862  0.32598765  0.21040971     1.10800
O1746       O  0.33688821  0.06161950  0.22936960    -0.97400
Zr1747     Zr  0.37172688  0.11998819  0.21826790     1.88900
O1748       O  0.46812710  0.18128190  0.20210684    -0.74100
O1749       O  0.43949661  0.25732654  0.23274073    -0.53300
O1750       O  0.43070495  0.14460267  0.22926009    -0.98000
O1751       O  0.34868481  0.03391172  0.21482816    -0.55200
O1752       O  0.44829437  0.12993274  0.21278406    -0.74600
C1753       C  0.47619183  0.15326744  0.20687008     0.97800
O1754       O  0.47267324  0.25940887  0.19111169    -0.63400
O1755       O  0.20536661  0.06857189  0.19229179    -0.58200
O1756       O  0.37659241  0.19609443  0.18766655    -0.94900
O1757       O  0.29903260  0.12656862  0.18731649    -0.93300
O1758       O  0.23575390  0.22545325  0.19394632    -0.93700
O1759       O  0.32914707  0.29413010  0.19396339    -0.92400
C1760       C  0.33670274  0.16382042  0.18393840     1.16600
H1761       H  0.21008901  0.13216195  0.20605602     0.32600
H1762       H  0.39762742  0.29876281  0.20627101     0.43400
H1763       H  0.37574686  0.10807063  0.20122355     0.36900
H1764       H  0.34206060  0.16302401  0.23079002     0.33400
H1765       H  0.28531539  0.32356595  0.20731249     0.25200
H1766       H  0.46780371  0.25555992  0.23026212     0.31100
H1767       H  0.46230941  0.17330895  0.22724140     0.37000
H1768       H  0.22821155  0.25309527  0.19461611     0.31500
H1769       H  0.19543721  0.03296801  0.19135118     0.30400
H1770       H  0.27112720  0.00458183  0.20021006     0.32100
H1771       H  0.37462335  0.02833740  0.21733834     0.31000
H1772       H  0.34318901  0.27842338  0.19043625     0.35000
H1773       H  0.47214367  0.23336211  0.18759256     0.27800
H1774       H  0.19647257  0.09497043  0.23540187     0.32000
H1775       H  0.36171682  0.05097780  0.23063894     0.34800
H1776       H  0.17771750  0.06720665  0.19550589     0.27500
H1777       H  0.45964050  0.27727629  0.18786189     0.40300
H1778       H  0.39653080  0.35054215  0.21902054     0.30400
H1779       H  0.29463812  0.30817797  0.21568546     0.38000
H1780       H  0.35532639  0.03455377  0.20909165     0.29900
H1781       H  0.45479213  0.29224163  0.23473410     0.29900
H1782       H  0.24491286  0.08987459  0.23607831     0.30200
Zr1783     Zr  0.26204093  0.11667353  0.13256618     2.17500
O1784       O  0.20514479  0.06178687  0.14283775    -0.52200
O1785       O  0.19931078  0.14416722  0.13133366    -0.75400
O1786       O  0.28821355  0.14843543  0.14625055    -0.82200
O1787       O  0.19981488  0.01134559  0.11718427    -0.83900
O1788       O  0.36848379  0.21404276  0.14605874    -0.79500
O1789       O  0.19261694  0.03234555  0.12982345    -0.91200
O1790       O  0.21889006  0.19443278  0.12054113    -0.77100
O1791       O  0.30956534  0.20416301  0.12941438    -0.86600
O1792       O  0.25061466  0.12283369  0.11871338    -0.86300
O1793       O  0.34777068  0.13943402  0.13556161    -0.73100
O1794       O  0.29103758  0.06634672  0.12578913    -0.85200
Zr1795     Zr  0.41393167  0.18753521  0.11192589     2.26400
Zr1796     Zr  0.39517076  0.22753783  0.13230219     2.06300
Zr1797     Zr  0.28110668  0.07502899  0.11189393     2.10000
Zr1798     Zr  0.29864840  0.20970623  0.11553025     1.78800
O1799       O  0.26158025  0.98977221  0.10872076    -0.94000
O1800       O  0.31295425  0.29194811  0.11964167    -0.41800
O1801       O  0.32873556  0.16224459  0.10841752    -0.78400
O1802       O  0.38439981  0.23715270  0.11852638    -0.97100
O1803       O  0.42475522  0.17900135  0.12563392    -0.90400
O1804       O  0.36632802  0.10004002  0.11500675    -0.93300
C1805       C  0.18984579  0.16983691  0.12628670     1.00500
C1806       C  0.17629819  0.00283936  0.12381714     1.13400
C1807       C  0.32868669  0.18184831  0.14974712     1.04200
O1808       O  0.39092796  0.30250859  0.13559986    -0.95400
O1809       O  0.47568240  0.29224732  0.12699391    -0.91200
O1810       O  0.48700318  0.26930953  0.11468772    -0.84300
C1811       C  0.50100404  0.29973497  0.12057866     1.10800
O1812       O  0.33781785  0.02852535  0.13896832    -0.97400
Zr1813     Zr  0.37716184  0.09190582  0.12862183     1.88900
O1814       O  0.48270315  0.17148992  0.11392417    -0.74100
O1815       O  0.47212562  0.25575042  0.13984686    -0.53300
O1816       O  0.43043612  0.10890104  0.14021770    -0.98000
O1817       O  0.36219768  0.01077364  0.12373414    -0.55200
O1818       O  0.46145240  0.11612091  0.12408384    -0.74600
C1819       C  0.49225187  0.14530447  0.11879145     0.97800
O1820       O  0.44390838  0.24016526  0.10011245    -0.63400
O1821       O  0.22585295  0.07532756  0.10158792    -0.58200
O1822       O  0.40462853  0.13886720  0.10008443    -0.94900
O1823       O  0.32483418  0.07207783  0.09988289    -0.93300
O1824       O  0.24447077  0.18916829  0.10398646    -0.93700
O1825       O  0.33546625  0.27301390  0.10516094    -0.92400
C1826       C  0.36939095  0.09840017  0.09694693     1.16600
H1827       H  0.21551956  0.10938159  0.11746246     0.32600
H1828       H  0.40393686  0.27202688  0.11696939     0.43400
H1829       H  0.37809499  0.08083082  0.11211713     0.36900
H1830       H  0.35191216  0.13224218  0.14095236     0.33400
H1831       H  0.28589737  0.29538200  0.11704095     0.25200
H1832       H  0.46837575  0.27225419  0.14461324     0.31100
H1833       H  0.44649428  0.08806829  0.13949857     0.37000
H1834       H  0.21288562  0.15835388  0.10546385     0.31500
H1835       H  0.22832832  0.05502178  0.09725325     0.30400
H1836       H  0.24050854  0.98084670  0.10390214     0.32100
H1837       H  0.38489093  0.01840373  0.11914657     0.31000
H1838       H  0.35873981  0.26486709  0.10232676     0.35000
H1839       H  0.41475604  0.22586740  0.09647515     0.27800
H1840       H  0.19530260  0.08268108  0.14598649     0.32000
H1841       H  0.35695741  0.01042382  0.13913217     0.34800
H1842       H  0.19137955  0.05427489  0.10370052     0.27500
H1843       H  0.44767926  0.27295596  0.10168828     0.40300
H1844       H  0.39845760  0.32139830  0.13056568     0.30400
H1845       H  0.30405185  0.28809655  0.12532481     0.38000
H1846       H  0.32799716  0.99475928  0.12142277     0.29900
H1847       H  0.47077818  0.22456676  0.14172767     0.29900
H1848       H  0.22592505  0.05406992  0.14642301     0.30200
Zr1849     Zr  0.85736604  0.11156095  0.22056543     2.17500
O1850       O  0.91500735  0.13701095  0.23172367    -0.52200
O1851       O  0.84556509  0.02842359  0.21873790    -0.75400
O1852       O  0.80947185  0.07169021  0.23261701    -0.82200
O1853       O  0.96479101  0.16671626  0.20618413    -0.83900
O1854       O  0.73567013  0.07244227  0.23213802    -0.79500
O1855       O  0.94285873  0.12942755  0.21825634    -0.91200
O1856       O  0.79757157  0.99627642  0.20775201    -0.77100
O1857       O  0.77141368  0.06450123  0.21657564    -0.86600
O1858       O  0.85972061  0.10216423  0.20656605    -0.86300
O1859       O  0.81994776  0.16069107  0.22442075    -0.73100
O1860       O  0.90207340  0.19466174  0.21505211    -0.85200
Zr1861     Zr  0.77935118  0.18868060  0.20050770     2.26400
Zr1862     Zr  0.73439246  0.11468162  0.21994528     2.06300
Zr1863     Zr  0.90133898  0.18523851  0.20103932     2.10000
Zr1864     Zr  0.77371004  0.05545962  0.20269883     1.78800
O1865       O  0.96454475  0.27425180  0.20047480    -0.94000
O1866       O  0.69365902  0.97887036  0.20493681    -0.41800
O1867       O  0.81555971  0.13792386  0.19737952    -0.78400
O1868       O  0.73389298  0.10405048  0.20587058    -0.97100
O1869       O  0.77769823  0.19765381  0.21447700    -0.90400
O1870       O  0.86532149  0.23619650  0.20449683    -0.93300
C1871       C  0.82369415  0.99410066  0.21350892     1.00500
C1872       C  0.97360556  0.14852731  0.21243394     1.13400
C1873       C  0.76666988  0.06171162  0.23555202     1.04200
O1874       O  0.65432791  0.03665179  0.22107305    -0.95400
O1875       O  0.66707933  0.12783291  0.21492709    -0.91200
O1876       O  0.69303388  0.16687007  0.20301946    -0.84300
C1877       C  0.66092411  0.14774506  0.20863578     1.10800
O1878       O  0.92062238  0.26488305  0.22976787    -0.97400
Zr1879     Zr  0.86322410  0.24253169  0.21860423     1.88900
O1880       O  0.80296721  0.27746081  0.20221789    -0.74100
O1881       O  0.71719002  0.15692083  0.23066440    -0.53300
O1882       O  0.82888180  0.26218536  0.23017058    -0.98000
O1883       O  0.94388892  0.31903217  0.21662794    -0.55200
O1884       O  0.84038249  0.30260273  0.21421607    -0.74600
C1885       C  0.82119311  0.30917001  0.20795055     0.97800
O1886       O  0.74198115  0.20702397  0.18915604    -0.63400
O1887       O  0.95820422  0.19035545  0.19055907    -0.58200
O1888       O  0.80185214  0.18106042  0.18676851    -0.94900
O1889       O  0.87322711  0.17634288  0.18722289    -0.93300
O1890       O  0.80919229  0.03588874  0.19127229    -0.93700
O1891       O  0.72010966  0.03131419  0.19104281    -0.92400
C1892       C  0.83699816  0.17639069  0.18337341     1.16600
H1893       H  0.87730876  0.08464533  0.20512358     0.32600
H1894       H  0.69989039  0.08623551  0.20389212     0.43400
H1895       H  0.88202184  0.26863948  0.20191762     0.36900
H1896       H  0.82095578  0.16427014  0.23011318     0.33400
H1897       H  0.69842527  0.95156168  0.20275588     0.25200
H1898       H  0.71671801  0.18578543  0.22813011     0.31100
H1899       H  0.84505312  0.29931507  0.23018968     0.37000
H1900       H  0.84223742  0.06649558  0.19039635     0.31500
H1901       H  0.99268109  0.20942395  0.19275266     0.30400
H1902       H  0.96364941  0.28417340  0.19492957     0.32100
H1903       H  0.94263758  0.34419085  0.22013992     0.31000
H1904       H  0.73016190  0.06343698  0.18827697     0.35000
H1905       H  0.71044615  0.17536160  0.18799193     0.27800
H1906       H  0.90682382  0.10548619  0.23452035     0.32000
H1907       H  0.94329395  0.25173044  0.22838084     0.34800
H1908       H  0.95146750  0.15553143  0.18987466     0.27500
H1909       H  0.73089827  0.23036252  0.19111641     0.40300
H1910       H  0.64581962  0.02409248  0.21558044     0.30400
H1911       H  0.69199628  0.97369099  0.21072693     0.38000
H1912       H  0.94215376  0.33052568  0.21123384     0.29900
H1913       H  0.68170112  0.13359320  0.23212185     0.29900
H1914       H  0.90409285  0.15525236  0.23530436     0.30200
Zr1915     Zr  0.88604572  0.13735784  0.13242561     2.17500
O1916       O  0.94093389  0.13070051  0.14221345    -0.52200
O1917       O  0.85392363  0.04638713  0.13095803    -0.75400
O1918       O  0.85518650  0.12794114  0.14615032    -0.82200
O1919       O  0.99853017  0.19762475  0.11816378    -0.83900
O1920       O  0.78335935  0.13198028  0.14614494    -0.79500
O1921       O  0.97067503  0.15413055  0.12970064    -0.91200
O1922       O  0.80265030  0.01652616  0.12028938    -0.77100
O1923       O  0.79982179  0.09454941  0.12868104    -0.86600
O1924       O  0.88592795  0.12783397  0.11840988    -0.86300
O1925       O  0.85827480  0.19539963  0.13619332    -0.73100
O1926       O  0.93389750  0.22112974  0.12680807    -0.85200
Zr1927     Zr  0.81230679  0.22028070  0.11281077     2.26400
Zr1928     Zr  0.77105497  0.15119083  0.13259951     2.06300
Zr1929     Zr  0.93173325  0.21056008  0.11272880     2.10000
Zr1930     Zr  0.80004204  0.08660131  0.11457977     1.78800
O1931       O  0.01509192  0.28345578  0.11089561    -0.94000
O1932       O  0.71153273  0.02187594  0.11509654    -0.41800
O1933       O  0.84545587  0.16803630  0.10864498    -0.78400
O1934       O  0.76629228  0.13808116  0.11854431    -0.97100
O1935       O  0.81514156  0.23275565  0.12672543    -0.90400
O1936       O  0.89911069  0.26393178  0.11637346    -0.93300
C1937       C  0.82517959  0.01073936  0.12619012     1.00500
C1938       C  0.00418795  0.17624653  0.12433096     1.13400
C1939       C  0.81837207  0.12851844  0.14974760     1.04200
O1940       O  0.69623740  0.07098020  0.13556986    -0.95400
O1941       O  0.70253694  0.15981789  0.12719883    -0.91200
O1942       O  0.72758123  0.20401978  0.11566524    -0.84300
C1943       C  0.69495894  0.18026039  0.12111647     1.10800
O1944       O  0.96624341  0.30453737  0.14036904    -0.97400
Zr1945     Zr  0.90164809  0.27601562  0.13015851     1.88900
O1946       O  0.82518906  0.30357429  0.11493959    -0.74100
O1947       O  0.74667868  0.19763861  0.14154724    -0.53300
O1948       O  0.87798781  0.30047995  0.14242923    -0.98000
O1949       O  0.97911623  0.35045135  0.12593880    -0.55200
O1950       O  0.87097901  0.33240438  0.12624263    -0.74600
C1951       C  0.84562080  0.33597192  0.12048232     0.97800
O1952       O  0.76071425  0.19585233  0.10091022    -0.63400
O1953       O  0.94316773  0.16563944  0.10179282    -0.58200
O1954       O  0.85989507  0.26337118  0.10105008    -0.94900
O1955       O  0.93235430  0.25985023  0.10112671    -0.93300
O1956       O  0.84019749  0.06205311  0.10447950    -0.93700
O1957       O  0.75413016  0.06560941  0.10212394    -0.92400
C1958       C  0.90254528  0.27365502  0.09806480     1.16600
H1959       H  0.90124399  0.10803564  0.11698785     0.32600
H1960       H  0.73180765  0.12119987  0.11675985     0.43400
H1961       H  0.91694903  0.29627321  0.11378721     0.36900
H1962       H  0.86375052  0.20481814  0.14168325     0.33400
H1963       H  0.71035696  0.99122504  0.11298284     0.25200
H1964       H  0.71539510  0.17154732  0.14409023     0.31100
H1965       H  0.84318431  0.29338113  0.14151567     0.37000
H1966       H  0.81907257  0.02504897  0.10412797     0.31500
H1967       H  0.91521869  0.15832034  0.09812206     0.30400
H1968       H  0.03020127  0.27414603  0.10649995     0.32100
H1969       H  0.96860529  0.36839640  0.12221971     0.31000
H1970       H  0.76546900  0.09836211  0.09949607     0.35000
H1971       H  0.73053018  0.16315416  0.10218292     0.27800
H1972       H  0.91969419  0.09899308  0.14513893     0.32000
H1973       H  0.97633210  0.34011062  0.14140430     0.34800
H1974       H  0.97365367  0.19139947  0.09901310     0.27500
H1975       H  0.74829424  0.21994530  0.10047689     0.40300
H1976       H  0.70914052  0.04822888  0.13701924     0.30400
H1977       H  0.70419480  0.01497398  0.12080459     0.38000
H1978       H  0.99658081  0.33740625  0.12260376     0.29900
H1979       H  0.77204917  0.21005082  0.14583201     0.29900
H1980       H  0.94929624  0.15793506  0.14608470     0.30200
Zr1981     Zr  0.47589679  0.54845365  0.03421387     2.17500
O1982       O  0.45974800  0.59753445  0.02449179    -0.52200
O1983       O  0.38542528  0.51892421  0.03600544    -0.75400
O1984       O  0.47313742  0.52051722  0.02038321    -0.82200
O1985       O  0.52718407  0.65753108  0.04908618    -0.83900
O1986       O  0.48243738  0.45161018  0.02033701    -0.79500
O1987       O  0.49523209  0.63413538  0.03668063    -0.91200
O1988       O  0.35869037  0.47291359  0.04729573    -0.77100
O1989       O  0.43658573  0.46132308  0.03737138    -0.86600
O1990       O  0.46109223  0.54290818  0.04813691    -0.86300
O1991       O  0.53897088  0.52649530  0.03086361    -0.73100
O1992       O  0.55682186  0.59876790  0.04058430    -0.85200
Zr1993     Zr  0.56056413  0.47750022  0.05418697     2.26400
Zr1994     Zr  0.49850963  0.43851770  0.03394529     2.06300
Zr1995     Zr  0.54065763  0.59108961  0.05452755     2.10000
Zr1996     Zr  0.42342224  0.45608875  0.05138168     1.78800
O1997       O  0.60873922  0.67515269  0.05772393    -0.94000
O1998       O  0.35387196  0.37441942  0.04744494    -0.41800
O1999       O  0.50213100  0.50388885  0.05806821    -0.78400
O2000       O  0.48074833  0.42862778  0.04782933    -0.97100
O2001       O  0.57770846  0.48578254  0.04040236    -0.90400
O2002       O  0.59998318  0.56513421  0.05118408    -0.93300
C2003       C  0.35245916  0.49556581  0.04145932     1.00500
C2004       C  0.51084041  0.66501993  0.04249740     1.13400
C2005       C  0.47767191  0.48591153  0.01677248     1.04200
O2006       O  0.41971818  0.36221061  0.03098970    -0.95400
O2007       O  0.51296299  0.37264908  0.03888518    -0.91200
O2008       O  0.54987500  0.39487631  0.05100415    -0.84300
C2009       C  0.53162069  0.36436001  0.04511537     1.10800
O2010       O  0.64636943  0.64658807  0.02899614    -0.97400
Zr2011     Zr  0.61720666  0.57297256  0.03750399     1.88900
O2012       O  0.64500852  0.49357988  0.05186969    -0.74100
O2013       O  0.54705374  0.41699161  0.02499137    -0.53300
O2014       O  0.64409565  0.55801168  0.02470632    -0.98000
O2015       O  0.69085498  0.64762579  0.04270595    -0.55200
O2016       O  0.67388178  0.54152731  0.04076284    -0.74600
C2017       C  0.67737218  0.51493594  0.04633134     0.97800
O2018       O  0.54067404  0.42468370  0.06594545    -0.63400
O2019       O  0.48375563  0.59151017  0.06453144    -0.58200
O2020       O  0.59862029  0.52571364  0.06614551    -0.94900
O2021       O  0.58568877  0.59238676  0.06659899    -0.93300
O2022       O  0.39485913  0.47738313  0.06345330    -0.93700
O2023       O  0.39948290  0.39081318  0.06136677    -0.92400
C2024       C  0.60361750  0.56568933  0.06947220     1.16600
H2025       H  0.43982372  0.55654309  0.04957700     0.32600
H2026       H  0.46532574  0.39366152  0.04934232     0.43400
H2027       H  0.63108278  0.58405016  0.05405086     0.36900
H2028       H  0.55001718  0.53337807  0.02547701     0.33400
H2029       H  0.32351666  0.37301996  0.04974912     0.25200
H2030       H  0.52229052  0.39284025  0.02118021     0.31100
H2031       H  0.67989745  0.56798947  0.02543176     0.37000
H2032       H  0.35770566  0.45929218  0.06304614     0.31500
H2033       H  0.48365797  0.56914159  0.06876239     0.30400
H2034       H  0.59734308  0.68480711  0.06255196     0.32100
H2035       H  0.70677145  0.63502677  0.04646011     0.31000
H2036       H  0.43098328  0.40045928  0.06428654     0.35000
H2037       H  0.52639793  0.43864727  0.06976847     0.27800
H2038       H  0.43074773  0.57310314  0.02129789     0.32000
H2039       H  0.68011560  0.65451311  0.02711428     0.34800
H2040       H  0.50207530  0.62562288  0.06684666     0.27500
H2041       H  0.51149205  0.39188146  0.06444182     0.40300
H2042       H  0.39964479  0.37380422  0.02800335     0.30400
H2043       H  0.35033891  0.37716282  0.04167764     0.38000
H2044       H  0.67702778  0.66427952  0.04606876     0.29900
H2045       H  0.56784268  0.44788743  0.02187732     0.29900
H2046       H  0.48885100  0.61190254  0.02083926     0.30200
Zr2047     Zr  0.43542322  0.51192948  0.94556114     2.17500
O2048       O  0.45066095  0.56937677  0.93463794    -0.52200
O2049       O  0.35068120  0.49528802  0.94783204    -0.75400
O2050       O  0.39694951  0.46453903  0.93345659    -0.82200
O2051       O  0.49530082  0.62028133  0.96018309    -0.83900
O2052       O  0.40536158  0.39494424  0.93319729    -0.79500
O2053       O  0.45562236  0.59819667  0.94826942    -0.91200
O2054       O  0.31856837  0.44109908  0.95818984    -0.77100
O2055       O  0.39508980  0.42449957  0.94858640    -0.86600
O2056       O  0.42163915  0.50599713  0.95948159    -0.86300
O2057       O  0.49246319  0.48437345  0.94133144    -0.73100
O2058       O  0.51621666  0.55938963  0.95165872    -0.85200
Zr2059     Zr  0.51961016  0.43776577  0.96500788     2.26400
Zr2060     Zr  0.45295565  0.39703466  0.94494264     2.06300
Zr2061     Zr  0.50226894  0.55110856  0.96561413     2.10000
Zr2062     Zr  0.38064984  0.41846841  0.96240130     1.78800
O2063       O  0.58440094  0.62231982  0.96889386    -0.94000
O2064       O  0.31026043  0.33860778  0.95801239    -0.41800
O2065       O  0.46087358  0.46367482  0.96865908    -0.78400
O2066       O  0.43762705  0.38918481  0.95890080    -0.97100
O2067       O  0.53367569  0.44390759  0.95106596    -0.90400
O2068       O  0.56106278  0.52518069  0.96188510    -0.93300
C2069       C  0.31621263  0.47006397  0.95292443     1.00500
C2070       C  0.47786141  0.62968678  0.95392105     1.13400
C2071       C  0.38989794  0.42349740  0.93023595     1.04200
O2072       O  0.38240316  0.31262276  0.94287350    -0.95400
O2073       O  0.47222792  0.33308241  0.94973044    -0.91200
O2074       O  0.49948724  0.35224285  0.96243432    -0.84300
C2075       C  0.48627998  0.32348107  0.95637239     1.10800
O2076       O  0.59644697  0.59206373  0.93714878    -0.97400
Zr2077     Zr  0.57224367  0.53079077  0.94780403     1.88900
O2078       O  0.60997563  0.46846569  0.96339035    -0.74100
O2079       O  0.50223419  0.39096566  0.93414304    -0.53300
O2080       O  0.59968765  0.50514001  0.93606475    -0.98000
O2081       O  0.64117246  0.61467143  0.95098624    -0.55200
O2082       O  0.63769974  0.51616685  0.95227844    -0.74600
C2083       C  0.64377419  0.49357514  0.95814260     0.97800
O2084       O  0.54288745  0.39429366  0.97477655    -0.63400
O2085       O  0.46239315  0.57786179  0.97547183    -0.58200
O2086       O  0.51017058  0.45725571  0.97888439    -0.94900
O2087       O  0.50821037  0.53001237  0.97922329    -0.93300
O2088       O  0.35559032  0.44076592  0.97472222    -0.93700
O2089       O  0.35153142  0.35263187  0.97243605    -0.92400
C2090       C  0.50729905  0.49227229  0.98265063     1.16600
H2091       H  0.40218569  0.52122214  0.96110061     0.32600
H2092       H  0.42148249  0.35422249  0.96040282     0.43400
H2093       H  0.59230753  0.54373077  0.96473570     0.36900
H2094       H  0.49711090  0.48822369  0.93566142     0.33400
H2095       H  0.28102658  0.33479034  0.96107604     0.25200
H2096       H  0.48110138  0.35653120  0.93204300     0.31100
H2097       H  0.59759440  0.47291790  0.93753959     0.37000
H2098       H  0.31864255  0.41844101  0.97497627     0.31500
H2099       H  0.48779479  0.61307427  0.97673281     0.30400
H2100       H  0.57698642  0.64588845  0.97179864     0.32100
H2101       H  0.66950438  0.61909109  0.94761179     0.31000
H2102       H  0.37421544  0.33844078  0.97206685     0.35000
H2103       H  0.56843741  0.42078079  0.97823179     0.27800
H2104       H  0.41768140  0.55722585  0.93204092     0.32000
H2105       H  0.56831883  0.59906049  0.93679178     0.34800
H2106       H  0.43556014  0.58031186  0.97261961     0.27500
H2107       H  0.51295782  0.37517680  0.97818303     0.40300
H2108       H  0.36267839  0.30464716  0.94782984     0.30400
H2109       H  0.30354255  0.34490057  0.95253037     0.38000
H2110       H  0.65166927  0.61192658  0.95640625     0.29900
H2111       H  0.50167950  0.41320713  0.92995056     0.29900
H2112       H  0.47132187  0.56299320  0.93083194     0.30200
Zr2113     Zr  0.07938625  0.52076176  0.03437385     2.17500
O2114       O  0.14234882  0.52632018  0.02496204    -0.52200
O2115       O  0.14199451  0.61113024  0.03511185    -0.75400
O2116       O  0.05558110  0.52118743  0.02040680    -0.82200
O2117       O  0.13823358  0.47876307  0.05053955    -0.83900
O2118       O  0.97978285  0.51739088  0.02020535    -0.79500
O2119       O  0.14561546  0.50253098  0.03765567    -0.91200
O2120       O  0.12466180  0.64310281  0.04599890    -0.77100
O2121       O  0.03528931  0.56484710  0.03699549    -0.86600
O2122       O  0.08947732  0.53955340  0.04819195    -0.86300
O2123       O  0.99332673  0.45979623  0.03119265    -0.73100
O2124       O  0.04587656  0.44137128  0.04132469    -0.85200
Zr2125     Zr  0.92425469  0.44674903  0.05447569     2.26400
Zr2126     Zr  0.94967298  0.50502070  0.03379982     2.06300
Zr2127     Zr  0.05534366  0.46136505  0.05516633     2.10000
Zr2128     Zr  0.04365611  0.58144116  0.05091099     1.78800
O2129       O  0.07065962  0.39231845  0.05796095    -0.94000
O2130       O  0.03182421  0.65080857  0.04671893    -0.41800
O2131       O  0.00989745  0.50406408  0.05812179    -0.78400
O2132       O  0.95798979  0.52563709  0.04759887    -0.97100
O2133       O  0.91450457  0.42689735  0.04077196    -0.90400
O2134       O  0.96935323  0.40348065  0.05196729    -0.93300
C2135       C  0.15260972  0.64643444  0.04016318     1.00500
C2136       C  0.16201294  0.49174013  0.04389897     1.13400
C2137       C  0.01755213  0.51860009  0.01671456     1.04200
O2138       O  0.95820627  0.58636372  0.03064877    -0.95400
O2139       O  0.86998869  0.49363036  0.03857007    -0.91200
O2140       O  0.85443197  0.45932472  0.05090801    -0.84300
C2141       C  0.84298426  0.47687283  0.04484430     1.10800
O2142       O  0.99328663  0.35068484  0.02856738    -0.97400
Zr2143     Zr  0.95881431  0.38323569  0.03842091     1.88900
O2144       O  0.85241725  0.36309161  0.05275724    -0.74100
O2145       O  0.88060911  0.46170862  0.02448214    -0.53300
O2146       O  0.90505492  0.34927363  0.02682289    -0.98000
O2147       O  0.97136872  0.31601702  0.04353102    -0.55200
O2148       O  0.87376766  0.32552267  0.04315799    -0.74600
C2149       C  0.84257161  0.32581396  0.04821345     0.97800
O2150       O  0.89610207  0.47245999  0.06616419    -0.63400
O2151       O  0.10769758  0.51298048  0.06603891    -0.58200
O2152       O  0.93110843  0.40858699  0.06670371    -0.94900
O2153       O  0.00947587  0.41792732  0.06721947    -0.93300
O2154       O  0.09727881  0.61441659  0.06252876    -0.93700
O2155       O  0.00738913  0.60967738  0.06112549    -0.92400
C2156       C  0.96511766  0.40223103  0.07008684     1.16600
H2157       H  0.12456527  0.56054106  0.04952521     0.32600
H2158       H  0.93951502  0.54250950  0.04893975     0.43400
H2159       H  0.95610564  0.37259896  0.05496487     0.36900
H2160       H  0.98863367  0.44718715  0.02587522     0.33400
H2161       H  0.06080446  0.68125205  0.04898766     0.25200
H2162       H  0.88426952  0.48763405  0.02062420     0.31100
H2163       H  0.87578370  0.35370262  0.02791351     0.37000
H2164       H  0.11062886  0.65120071  0.06233305     0.31500
H2165       H  0.12667320  0.49632725  0.06773494     0.30400
H2166       H  0.08794706  0.40077923  0.06314482     0.32100
H2167       H  0.94523903  0.29899088  0.04762808     0.31000
H2168       H  0.99188906  0.58142377  0.06493292     0.35000
H2169       H  0.92662393  0.49084357  0.06947553     0.27800
H2170       H  0.14941466  0.55452369  0.02135360     0.32000
H2171       H  0.96763118  0.31479307  0.02786556     0.34800
H2172       H  0.13330623  0.54473651  0.06354823     0.27500
H2173       H  0.88911974  0.49896409  0.06432419     0.40300
H2174       H  0.92440314  0.57842812  0.02879817     0.30400
H2175       H  0.03837257  0.65382333  0.04095999     0.38000
H2176       H  0.00335155  0.33347649  0.04651395     0.29900
H2177       H  0.88847817  0.43886713  0.02146718     0.29900
H2178       H  0.12527420  0.49563402  0.02167656     0.30200
Zr2179     Zr  0.07416321  0.55065778  0.94564900     2.17500
O2180       O  0.10620804  0.53285462  0.93361299    -0.52200
O2181       O  0.14700151  0.63213430  0.94841246    -0.75400
O2182       O  0.06771206  0.59693709  0.93424782    -0.82200
O2183       O  0.11897189  0.48504151  0.95939730    -0.83900
O2184       O  0.99019751  0.58975050  0.93414783    -0.79500
O2185       O  0.13769589  0.52614372  0.94762115    -0.91200
O2186       O  0.12930781  0.66246843  0.95946684    -0.77100
O2187       O  0.03309289  0.59555168  0.94957680    -0.86600
O2188       O  0.08388557  0.55939509  0.95968751    -0.86300
O2189       O  0.98810478  0.49974766  0.94163480    -0.73100
O2190       O  0.03583569  0.46747083  0.95121420    -0.85200
Zr2191     Zr  0.91700061  0.47011793  0.96556381     2.26400
Zr2192     Zr  0.94653587  0.54395461  0.94606503     2.06300
Zr2193     Zr  0.04329475  0.47671557  0.96526784     2.10000
Zr2194     Zr  0.04322166  0.60515252  0.96345021     1.78800
O2195       O  0.02157996  0.38965215  0.96750422    -0.94000
O2196       O  0.04367264  0.68191225  0.95960273    -0.41800
O2197       O  0.00323717  0.52281588  0.96888426    -0.78400
O2198       O  0.95525358  0.55450218  0.96016080    -0.97100
O2199       O  0.90735073  0.46106986  0.95156162    -0.90400
O2200       O  0.95710045  0.42395558  0.96163324    -0.93300
C2201       C  0.15904347  0.66481962  0.95393766     1.00500
C2202       C  0.14619067  0.50275661  0.95317779     1.13400
C2203       C  0.03433217  0.60582192  0.93121935     1.04200
O2204       O  0.94316629  0.62135273  0.94513685    -0.95400
O2205       O  0.86551101  0.52973075  0.95081499    -0.91200
O2206       O  0.85200083  0.49105899  0.96277204    -0.84300
C2207       C  0.83939039  0.51025576  0.95710673     1.10800
O2208       O  0.98737666  0.38952556  0.93751964    -0.97400
Zr2209     Zr  0.94967115  0.41776561  0.94748763     1.88900
O2210       O  0.85268904  0.38148402  0.96352551    -0.74100
O2211       O  0.88972167  0.50142324  0.93507426    -0.53300
O2212       O  0.90481692  0.40366520  0.93500860    -0.98000
O2213       O  0.94545919  0.33717876  0.94969260    -0.55200
O2214       O  0.86454797  0.35995113  0.95121062    -0.74600
C2215       C  0.83866480  0.35188883  0.95750495     0.97800
O2216       O  0.86168868  0.45301897  0.97693758    -0.63400
O2217       O  0.10801429  0.49670115  0.97525697    -0.58200
O2218       O  0.94661908  0.47588989  0.97937239    -0.94900
O2219       O  0.02252552  0.47995659  0.97909916    -0.93300
O2220       O  0.08854634  0.62016343  0.97588754    -0.93700
O2221       O  0.01430206  0.63980092  0.97384036    -0.92400
C2222       C  0.98620194  0.48032140  0.98283347     1.16600
H2223       H  0.11867218  0.57600473  0.96128610     0.32600
H2224       H  0.93809750  0.57159355  0.96203333     0.43400
H2225       H  0.94205148  0.39157930  0.96421194     0.36900
H2226       H  0.98627964  0.49669225  0.93593265     0.33400
H2227       H  0.07064413  0.70875909  0.96282861     0.25200
H2228       H  0.85925783  0.47344870  0.93753092     0.31100
H2229       H  0.87037808  0.37550889  0.93600853     0.37000
H2230       H  0.10814046  0.65722993  0.97641410     0.31500
H2231       H  0.12051431  0.47290234  0.97440664     0.30400
H2232       H  0.04702861  0.39149068  0.97129765     0.32100
H2233       H  0.91628780  0.31267774  0.94652376     0.31000
H2234       H  0.97995879  0.63158195  0.97227953     0.35000
H2235       H  0.86119980  0.48459431  0.97791108     0.27800
H2236       H  0.13136229  0.56607942  0.93146667     0.32000
H2237       H  0.02011847  0.41969539  0.93629481     0.34800
H2238       H  0.13633633  0.52993298  0.97369457     0.27500
H2239       H  0.82740752  0.42889905  0.97503436     0.40300
H2240       H  0.95184629  0.63601856  0.95050949     0.30400
H2241       H  0.05721529  0.68895801  0.95414990     0.38000
H2242       H  0.93440039  0.32811305  0.95524023     0.29900
H2243       H  0.87900328  0.52532207  0.93327215     0.29900
H2244       H  0.07788393  0.51953955  0.92981715     0.30200
Zr2245     Zr  0.45187775  0.92231459  0.03395119     2.17500
O2246       O  0.39654998  0.86607277  0.02366328    -0.52200
O2247       O  0.48072102  0.86032818  0.03537355    -0.75400
O2248       O  0.48479092  0.94619553  0.02036312    -0.82200
O2249       O  0.34342162  0.86183203  0.04863943    -0.83900
O2250       O  0.55373543  0.02420807  0.02071521    -0.79500
O2251       O  0.36747768  0.85342740  0.03626622    -0.91200
O2252       O  0.53084033  0.88031885  0.04617152    -0.77100
O2253       O  0.53817355  0.96589130  0.03770033    -0.86600
O2254       O  0.45288049  0.91084696  0.04789669    -0.86300
O2255       O  0.47870988  0.00871472  0.03078587    -0.73100
O2256       O  0.40294273  0.95599162  0.03993606    -0.85200
Zr2257     Zr  0.52251816  0.07493556  0.05450386     2.26400
Zr2258     Zr  0.56586993  0.05203347  0.03448974     2.06300
Zr2259     Zr  0.40511238  0.94442873  0.05390663     2.10000
Zr2260     Zr  0.53876019  0.95576105  0.05173078     1.78800
O2261       O  0.32142515  0.93462892  0.05466466    -0.94000
O2262       O  0.62648302  0.98197518  0.04900802    -0.41800
O2263       O  0.49129797  0.98859745  0.05802887    -0.78400
O2264       O  0.57059242  0.04170783  0.04849050    -0.97100
O2265       O  0.52009157  0.08706896  0.04064637    -0.90400
O2266       O  0.43586464  0.03104876  0.05081630    -0.93300
C2267       C  0.50805410  0.85207571  0.04027867     1.00500
C2268       C  0.33696957  0.83747794  0.04213139     1.13400
C2269       C  0.52041682  0.98538790  0.01694477     1.04200
O2270       O  0.63965301  0.04349901  0.03226059    -0.95400
O2271       O  0.63213900  0.12976608  0.04017303    -0.91200
O2272       O  0.60802710  0.14410096  0.05218988    -0.84300
C2273       C  0.64000851  0.15559830  0.04652900     1.10800
O2274       O  0.36517750  0.00650456  0.02753717    -0.97400
Zr2275     Zr  0.43385087  0.04363584  0.03708396     1.88900
O2276       O  0.51249270  0.14708918  0.05219011    -0.74100
O2277       O  0.59744537  0.12373036  0.02553692    -0.53300
O2278       O  0.45785697  0.08916183  0.02456226    -0.98000
O2279       O  0.35824412  0.04480858  0.04124655    -0.55200
O2280       O  0.46614727  0.13108355  0.04098461    -0.74600
C2281       C  0.49263247  0.15998898  0.04667475     0.97800
O2282       O  0.56863619  0.10221663  0.06692382    -0.63400
O2283       O  0.39244968  0.88790790  0.06488979    -0.58200
O2284       O  0.47271137  0.06554464  0.06625778    -0.94900
O2285       O  0.40229522  0.98792166  0.06595021    -0.93300
O2286       O  0.51052533  0.89248919  0.06214985    -0.93700
O2287       O  0.58855994  0.98364083  0.06380784    -0.92400
C2288       C  0.43070325  0.03123628  0.06916430     1.16600
H2289       H  0.43843936  0.87557001  0.04916938     0.32600
H2290       H  0.60486329  0.05947206  0.05029926     0.43400
H2291       H  0.41716266  0.04419089  0.05353438     0.36900
H2292       H  0.47334019  0.01324720  0.02526215     0.33400
H2293       H  0.63377138  0.95996260  0.05235990     0.25200
H2294       H  0.62133089  0.12050453  0.02198034     0.31100
H2295       H  0.44971916  0.11636654  0.02519965     0.37000
H2296       H  0.53377222  0.87890002  0.06192204     0.31500
H2297       H  0.35558271  0.86515744  0.06513877     0.30400
H2298       H  0.30272531  0.90627727  0.05837003     0.32100
H2299       H  0.36947020  0.07096565  0.04539495     0.31000
H2300       H  0.57358297  0.00028301  0.06690274     0.35000
H2301       H  0.59922394  0.09967773  0.06609098     0.27800
H2302       H  0.41631701  0.85359976  0.02079854     0.32000
H2303       H  0.35934751  0.03408611  0.02584862     0.34800
H2304       H  0.40585559  0.86634194  0.06300382     0.27500
H2305       H  0.58088134  0.13875073  0.06723768     0.40300
H2306       H  0.66745783  0.07827385  0.03134661     0.30400
H2307       H  0.62644865  0.97037832  0.04354571     0.38000
H2308       H  0.33798364  0.01268222  0.04410379     0.29900
H2309       H  0.56850562  0.11712070  0.02213602     0.29900
H2310       H  0.39131174  0.88741999  0.01982552     0.30200
Zr2311     Zr  0.47510140  0.91443623  0.94603169     2.17500
O2312       O  0.42201352  0.88474451  0.93430597    -0.52200
O2313       O  0.48601252  0.84260652  0.94822059    -0.75400
O2314       O  0.52400688  0.91921456  0.93443236    -0.82200
O2315       O  0.36757695  0.86673910  0.96043956    -0.83900
O2316       O  0.59444351  0.99633668  0.93402133    -0.79500
O2317       O  0.38967174  0.84809040  0.94862683    -0.91200
O2318       O  0.53801321  0.86178722  0.95882550    -0.77100
O2319       O  0.56233728  0.95767414  0.94920743    -0.86600
O2320       O  0.47855043  0.90543980  0.95998680    -0.86300
O2321       O  0.50678887  0.99970062  0.94188898    -0.73100
O2322       O  0.42925334  0.95015180  0.95196912    -0.85200
Zr2323     Zr  0.55241249  0.07159608  0.96551512     2.26400
Zr2324     Zr  0.59381747  0.04371793  0.94563711     2.06300
Zr2325     Zr  0.43546251  0.94367654  0.96596405     2.10000
Zr2326     Zr  0.56599532  0.94809835  0.96301927     1.78800
O2327       O  0.36776013  0.96091985  0.96886854    -0.94000
O2328       O  0.64527278  0.95483864  0.95888139    -0.41800
O2329       O  0.52264936  0.98595115  0.96896998    -0.78400
O2330       O  0.59958165  0.03558753  0.95966540    -0.97100
O2331       O  0.54872421  0.08018312  0.95157249    -0.90400
O2332       O  0.46518948  0.02928242  0.96226077    -0.93300
C2333       C  0.50910166  0.83150806  0.95344771     1.00500
C2334       C  0.35830958  0.83912291  0.95427210     1.13400
C2335       C  0.56547411  0.95204984  0.93119898     1.04200
O2336       O  0.67797156  0.05476947  0.94472690    -0.95400
O2337       O  0.65611869  0.12861582  0.94982223    -0.91200
O2338       O  0.63676885  0.13795412  0.96244801    -0.84300
C2339       C  0.66507127  0.15334777  0.95633119     1.10800
O2340       O  0.40263370  0.00153614  0.93723630    -0.97400
Zr2341     Zr  0.46209028  0.03563467  0.94815558     1.88900
O2342       O  0.52605508  0.13486327  0.96385275    -0.74100
O2343       O  0.60412674  0.09772158  0.93439693    -0.53300
O2344       O  0.48951006  0.08975139  0.93651888    -0.98000
O2345       O  0.37937319  0.02336631  0.95144031    -0.55200
O2346       O  0.48289855  0.11829482  0.95230407    -0.74600
C2347       C  0.50491779  0.14614500  0.95826518     0.97800
O2348       O  0.59361711  0.12752204  0.97669361    -0.63400
O2349       O  0.39646302  0.87883932  0.97610318    -0.58200
O2350       O  0.53183441  0.04449738  0.97939699    -0.94900
O2351       O  0.46229405  0.96700779  0.97962988    -0.93300
O2352       O  0.54427328  0.90097226  0.97536410    -0.93700
O2353       O  0.62929913  0.98280473  0.97339810    -0.92400
C2354       C  0.49853687  0.00511879  0.98310555     1.16600
H2355       H  0.46177907  0.87070004  0.96160163     0.32600
H2356       H  0.63429518  0.05374610  0.96132091     0.43400
H2357       H  0.44770828  0.04355620  0.96501255     0.36900
H2358       H  0.50363370  0.00085832  0.93621508     0.33400
H2359       H  0.64194796  0.92200118  0.96029499     0.25200
H2360       H  0.63564054  0.10386459  0.93180558     0.31100
H2361       H  0.46638433  0.10343494  0.93616265     0.37000
H2362       H  0.55702060  0.87720151  0.97475830     0.31500
H2363       H  0.36017909  0.86800969  0.97597129     0.30400
H2364       H  0.37646240  0.97753329  0.97410456     0.32100
H2365       H  0.38448696  0.04375516  0.95624452     0.31000
H2366       H  0.62209100  0.00667765  0.97625603     0.35000
H2367       H  0.62508544  0.12675979  0.97761224     0.27800
H2368       H  0.42750511  0.85812929  0.93203944     0.32000
H2369       H  0.38708982  0.96460491  0.93775993     0.34800
H2370       H  0.39861936  0.84971191  0.97408014     0.27500
H2371       H  0.60458891  0.16201318  0.97478346     0.40300
H2372       H  0.69114508  0.07195634  0.93959646     0.30400
H2373       H  0.64444350  0.95480629  0.95303255     0.38000
H2374       H  0.35986321  0.98804778  0.95328189     0.29900
H2375       H  0.57708697  0.07628552  0.93064367     0.29900
H2376       H  0.43747593  0.91282013  0.93046585     0.30200
C2377       C  0.51867079  0.98969610  0.00815430    -0.07000
C2378       C  0.52932901  0.03654811  0.00500085    -0.18100
C2379       C  0.52192740  0.04255936  0.99695536     0.10200
C2380       C  0.50446005  0.00105949  0.99179091    -0.06900
C2381       C  0.49416992  0.95427566  0.99490776    -0.18100
C2382       C  0.50084962  0.94807451  0.00298874     0.10300
S2383       S  0.53109125  0.10233243  0.99351173    -0.33100
S2384       S  0.48860958  0.88743889  0.00652202    -0.33100
H2385       H  0.46572938  0.86029987  0.99958700     0.28300
H2386       H  0.54637396  0.12798510  0.00076682     0.28300
H2387       H  0.54143857  0.06827837  0.00894534     0.18900
H2388       H  0.48163250  0.92254132  0.99094385     0.18900
C2389       C  0.79036669  0.30414912  0.95769877    -0.07000
C2390       C  0.78057325  0.27088854  0.96400019    -0.18100
C2391       C  0.74102824  0.22104662  0.96361392     0.10200
C2392       C  0.70996592  0.20401511  0.95681431    -0.06900
C2393       C  0.71889001  0.23785834  0.95062915    -0.18100
C2394       C  0.75807484  0.28770336  0.95104885     0.10300
S2395       S  0.73430304  0.18033897  0.97177217    -0.33100
S2396       S  0.76421224  0.32897035  0.94299303    -0.33100
H2397       H  0.78411757  0.37291975  0.94761288     0.28300
H2398       H  0.71961816  0.13732541  0.96709231     0.28300
H2399       H  0.80555870  0.28293762  0.96906081     0.18900
H2400       H  0.69424767  0.22576611  0.94552409     0.18900
C2401       C  0.21100419  0.70765110  0.95404745    -0.07000
C2402       C  0.23372070  0.73106728  0.94689209    -0.18100
C2403       C  0.28144699  0.77432570  0.94671304     0.10200
C2404       C  0.30806436  0.79346728  0.95387054    -0.06900
C2405       C  0.28580328  0.76896690  0.96099896    -0.18100
C2406       C  0.23811892  0.72632460  0.96116628     0.10300
S2407       S  0.30568855  0.80633575  0.93740424    -0.33100
S2408       S  0.21548212  0.69624716  0.97062393    -0.33100
H2409       H  0.19365940  0.64702483  0.96763011     0.28300
H2410       H  0.26303342  0.77576178  0.93278872     0.28300
H2411       H  0.21339075  0.71612375  0.94145004     0.18900
H2412       H  0.30614033  0.78265800  0.96651378     0.18900
C2413       C  0.79103518  0.28105842  0.04856691    -0.07000
C2414       C  0.74978635  0.28788840  0.05025001    -0.18100
C2415       C  0.69997284  0.24790660  0.04971463     0.10200
C2416       C  0.69089085  0.19977025  0.04745011    -0.06900
C2417       C  0.73195269  0.19273441  0.04597482    -0.18100
C2418       C  0.78145861  0.23215848  0.04667661     0.10300
S2419       S  0.64994276  0.26136191  0.05158420    -0.33100
S2420       S  0.83050909  0.21667445  0.04552835    -0.33100
H2421       H  0.85888601  0.24708784  0.05189821     0.28300
H2422       H  0.61626771  0.22731362  0.04599225     0.28300
H2423       H  0.75622095  0.32505346  0.05168953     0.18900
H2424       H  0.72537904  0.15561734  0.04444419     0.18900
C2425       C  0.20182665  0.69330906  0.03986636    -0.07000
C2426       C  0.23108744  0.70574049  0.04676040    -0.18100
C2427       C  0.27599408  0.75130251  0.04749644     0.10200
C2428       C  0.29172718  0.78695739  0.04132920    -0.06900
C2429       C  0.26390951  0.77365899  0.03423529    -0.18100
C2430       C  0.21898175  0.72734858  0.03344401     0.10300
S2431       S  0.31265567  0.76040419  0.05630127    -0.33100
S2432       S  0.18473891  0.71537869  0.02428417    -0.33100
H2433       H  0.13667109  0.68327239  0.02740610     0.28300
H2434       H  0.35956881  0.78588218  0.05245667     0.28300
H2435       H  0.21883124  0.67932405  0.05164781     0.18900
H2436       H  0.27624058  0.80028881  0.02938429     0.18900
C2437       C  0.99298283  0.49009009  0.99152857    -0.07000
C2438       C  0.01576962  0.46809843  0.99595007    -0.18100
C2439       C  0.02568777  0.47778311  0.00408569     0.10200
C2440       C  0.01360991  0.51139646  0.00795886    -0.06900
C2441       C  0.99077488  0.53329734  0.00353190    -0.18100
C2442       C  0.98127100  0.52387810  0.99541429     0.10300
S2443       S  0.05043259  0.44404316  0.00948615    -0.33100
S2444       S  0.95712817  0.55881496  0.99030421    -0.33100
H2445       H  0.98789863  0.56818395  0.98364774     0.28300
H2446       H  0.04749798  0.41194356  0.00331889     0.28300
H2447       H  0.02531653  0.44265294  0.99300406     0.18900
H2448       H  0.98087003  0.55872430  0.00641027     0.18900
C2449       C  0.79036610  0.50790388  0.95787331    -0.07000
C2450       C  0.74803808  0.46134146  0.95976557    -0.18100
C2451       C  0.69972933  0.45538635  0.96001142     0.10200
C2452       C  0.69361680  0.49744101  0.95866043    -0.06900
C2453       C  0.73619321  0.54420384  0.95693530    -0.18100
C2454       C  0.78427387  0.54991984  0.95654904     0.10300
S2455       S  0.64743099  0.39259841  0.96140733    -0.33100
S2456       S  0.83621762  0.61191516  0.95451929    -0.33100
H2457       H  0.87049568  0.60720775  0.95945941     0.28300
H2458       H  0.61620375  0.39694423  0.95574870     0.28300
H2459       H  0.75237542  0.42874822  0.96069392     0.18900
H2460       H  0.73192194  0.57669413  0.95584875     0.18900
C2461       C  0.27229877  0.47754791  0.95297423    -0.07000
C2462       C  0.25020311  0.47887253  0.94576743    -0.18100
C2463       C  0.20919454  0.48735894  0.94554395     0.10200
C2464       C  0.19058454  0.49574854  0.95269798    -0.06900
C2465       C  0.21344768  0.49508314  0.95985517    -0.18100
C2466       C  0.25391180  0.48652940  0.96007437     0.10300
S2467       S  0.17945531  0.48419198  0.93618200    -0.33100
S2468       S  0.28197323  0.49047163  0.96959684    -0.33100
H2469       H  0.33156646  0.52051534  0.96688140     0.28300
H2470       H  0.21104880  0.47402366  0.93145070     0.28300
H2471       H  0.26458509  0.47224395  0.94032509     0.18900
H2472       H  0.20016326  0.50216810  0.96537998     0.18900
C2473       C  0.48951991  0.27715716  0.95707355    -0.07000
C2474       C  0.51431192  0.26673004  0.95105130    -0.18100
C2475       C  0.52357635  0.22671169  0.95170015     0.10200
C2476       C  0.50604828  0.19472642  0.95837450    -0.06900
C2477       C  0.48203710  0.20544663  0.96449312    -0.18100
C2478       C  0.47346179  0.24619394  0.96391211     0.10300
S2479       S  0.55930125  0.21904758  0.94389162    -0.33100
S2480       S  0.43944889  0.25487688  0.97188460    -0.33100
H2481       H  0.41418592  0.27244462  0.96705152     0.28300
H2482       H  0.58192065  0.19856596  0.94872573     0.28300
H2483       H  0.52838928  0.29117903  0.94592927     0.18900
H2484       H  0.46775269  0.18059964  0.96956480     0.18900
C2485       C  0.49978222  0.77950056  0.95348724    -0.07000
C2486       C  0.50636635  0.75879084  0.94650455    -0.18100
C2487       C  0.49936360  0.70999644  0.94639301     0.10200
C2488       C  0.48417616  0.68064038  0.95338525    -0.06900
C2489       C  0.47648971  0.70124351  0.96029836    -0.18100
C2490       C  0.48321803  0.74968141  0.96038046     0.10300
S2491       S  0.51355107  0.68905306  0.93730411    -0.33100
S2492       S  0.46679432  0.77016746  0.96930476    -0.33100
H2493       H  0.43908184  0.78861766  0.96533043     0.28300
H2494       H  0.53665114  0.66466480  0.94097722     0.28300
H2495       H  0.51859443  0.78138965  0.94116950     0.18900
H2496       H  0.46401373  0.67894754  0.96566387     0.18900
C2497       C  0.72016899  0.50589553  0.04612197    -0.07000
C2498       C  0.73000888  0.48881265  0.03902290    -0.18100
C2499       C  0.76740877  0.47558665  0.03856586     0.10200
C2500       C  0.79718846  0.48120856  0.04528649    -0.06900
C2501       C  0.78627208  0.49688321  0.05245045    -0.18100
C2502       C  0.74844523  0.50956781  0.05292629     0.10300
S2503       S  0.77334221  0.44938615  0.02936422    -0.33100
S2504       S  0.74005177  0.53269250  0.06226865    -0.33100
H2505       H  0.72596728  0.56617415  0.05906553     0.28300
H2506       H  0.78681238  0.41621942  0.03288552     0.28300
H2507       H  0.70721766  0.48414968  0.03385018     0.18900
H2508       H  0.80899499  0.50169203  0.05763469     0.18900
C2509       C  0.30487740  0.49674681  0.04155728    -0.07000
C2510       C  0.29253579  0.51222798  0.04861498    -0.18100
C2511       C  0.24712227  0.51199207  0.04950817     0.10200
C2512       C  0.21183310  0.49465594  0.04325280    -0.06900
C2513       C  0.22483227  0.48035190  0.03609229    -0.18100
C2514       C  0.27051228  0.48058612  0.03521958     0.10300
S2515       S  0.23794448  0.53647901  0.05865696    -0.33100
S2516       S  0.28131511  0.45703829  0.02610447    -0.33100
H2517       H  0.30675734  0.43437817  0.02956783     0.28300
H2518       H  0.21604733  0.56228787  0.05506741     0.28300
H2519       H  0.31897720  0.52517998  0.05349535     0.18900
H2520       H  0.19839984  0.46713196  0.03121821     0.18900
C2521       C  0.52863101  0.31469268  0.04566677    -0.07000
C2522       C  0.51580261  0.28919153  0.05294863    -0.18100
C2523       C  0.50353620  0.23871846  0.05349611     0.10200
C2524       C  0.50344214  0.21263537  0.04659006    -0.06900
C2525       C  0.51821133  0.23872592  0.03939167    -0.18100
C2526       C  0.53210952  0.28947899  0.03889861     0.10300
S2527       S  0.48647388  0.20945309  0.06311186    -0.33100
S2528       S  0.55669859  0.32043985  0.02956096    -0.33100
H2529       H  0.59066509  0.36729996  0.03292151     0.28300
H2530       H  0.44932292  0.16204615  0.06035216     0.28300
H2531       H  0.51319739  0.30797921  0.05820206     0.18900
H2532       H  0.52073380  0.21983546  0.03414088     0.18900
C2533       C  0.50996343  0.71261239  0.04145547    -0.07000
C2534       C  0.55389603  0.75823194  0.04298362    -0.18100
C2535       C  0.55544383  0.80446803  0.04204868     0.10200
C2536       C  0.51177870  0.80555553  0.03957151    -0.06900
C2537       C  0.46843591  0.75985056  0.03769604    -0.18100
C2538       C  0.46684631  0.71361380  0.03869848     0.10300
S2539       S  0.61426542  0.86172752  0.04379650    -0.33100
S2540       S  0.40752823  0.65719577  0.03687871    -0.33100
H2541       H  0.41249873  0.62842786  0.04291421     0.28300
H2542       H  0.63709326  0.83961119  0.04819796     0.28300
H2543       H  0.58736609  0.75759177  0.04483319     0.18900
H2544       H  0.43445365  0.75981152  0.03593658     0.18900
C2545       C  0.48314433  0.48803474  0.00799979    -0.07000
C2546       C  0.46453913  0.44287652  0.00373054    -0.18100
C2547       C  0.47215444  0.44266385  0.99554143     0.10200
C2548       C  0.49998804  0.48877494  0.99140650    -0.06900
C2549       C  0.51891295  0.53378602  0.99570666    -0.18100
C2550       C  0.51174863  0.53398034  0.00387641     0.10300
S2551       S  0.44332959  0.38225630  0.99074352    -0.33100
S2552       S  0.54408947  0.59418439  0.00871381    -0.33100
H2553       H  0.56916982  0.57906958  0.01402492     0.28300
H2554       H  0.42310469  0.39716916  0.98454765     0.28300
H2555       H  0.44336394  0.40725574  0.00679091     0.18900
H2556       H  0.54087691  0.56948762  0.99269936     0.18900
C2557       C  0.91877366  0.30502090  0.09073356    -0.07000
C2558       C  0.96880861  0.34453778  0.09006282    -0.18100
C2559       C  0.98476621  0.37812673  0.08362089     0.10200
C2560       C  0.95043512  0.37170999  0.07751415    -0.06900
C2561       C  0.90041565  0.33237488  0.07823945    -0.18100
C2562       C  0.88448480  0.29902309  0.08465114     0.10300
S2563       S  0.04853181  0.42988928  0.08378461    -0.33100
S2564       S  0.82037959  0.24793174  0.08441809    -0.33100
H2565       H  0.83105720  0.21227760  0.08774603     0.28300
H2566       H  0.03642415  0.46506529  0.08066850     0.28300
H2567       H  0.99531338  0.35041941  0.09474173     0.18900
H2568       H  0.87359162  0.32616527  0.07359418     0.18900
C2569       C  0.83295257  0.16550493  0.17469390    -0.07000
C2570       C  0.78487854  0.13786925  0.17125876    -0.18100
C2571       C  0.77843181  0.12184653  0.16333747     0.10200
C2572       C  0.82095785  0.13387194  0.15855810    -0.06900
C2573       C  0.86890218  0.16087871  0.16204251    -0.18100
C2574       C  0.87539284  0.17760663  0.16989986     0.10300
S2575       S  0.71479326  0.08495984  0.15978044    -0.33100
S2576       S  0.93917602  0.21789413  0.17316943    -0.33100
H2577       H  0.92820338  0.24959022  0.17772975     0.28300
H2578       H  0.72499740  0.05441335  0.15479409     0.28300
H2579       H  0.75174348  0.12725423  0.17483768     0.18900
H2580       H  0.90217097  0.17222152  0.15846101     0.18900
C2581       C  0.14210961  0.17125820  0.12677137    -0.07000
C2582       C  0.14349463  0.21622513  0.12460271    -0.18100
C2583       C  0.09962508  0.21931857  0.12396511     0.10200
C2584       C  0.05233501  0.17626554  0.12538203    -0.06900
C2585       C  0.05083224  0.13166672  0.12783629    -0.18100
C2586       C  0.09483052  0.12841929  0.12842763     0.10300
S2587       S  0.10691793  0.27985249  0.12158676    -0.33100
S2588       S  0.08745258  0.06768727  0.13072294    -0.33100
H2589       H  0.12120356  0.07000696  0.12487807     0.28300
H2590       H  0.06756199  0.27459674  0.12650506     0.28300
H2591       H  0.17934985  0.24954825  0.12337153     0.18900
H2592       H  0.01480436  0.09833123  0.12896726     0.18900
C2593       C  0.64380470  0.17267315  0.12018018    -0.07000
C2594       C  0.60320278  0.12476135  0.12193265    -0.18100
C2595       C  0.55349726  0.11373824  0.12107602     0.10200
C2596       C  0.54346388  0.15185123  0.11860211    -0.06900
C2597       C  0.58414980  0.19948895  0.11661800    -0.18100
C2598       C  0.63403166  0.21039987  0.11741294     0.10300
S2599       S  0.50491416  0.04982767  0.12296065    -0.33100
S2600       S  0.68303383  0.27379660  0.11524347    -0.33100
H2601       H  0.71566104  0.27622778  0.12128340     0.28300
H2602       H  0.47444548  0.04858262  0.11665446     0.28300
H2603       H  0.61026113  0.09511338  0.12384073     0.18900
H2604       H  0.57722351  0.22935245  0.11479140     0.18900
C2605       C  0.38292640  0.07973305  0.08975371    -0.07000
C2606       C  0.43061276  0.08374066  0.08953457    -0.18100
C2607       C  0.44594197  0.06572753  0.08313076     0.10200
C2608       C  0.41347834  0.04374316  0.07659748    -0.06900
C2609       C  0.36532830  0.03863725  0.07685768    -0.18100
C2610       C  0.34998087  0.05685368  0.08328786     0.10300
S2611       S  0.50682922  0.07047867  0.08382942    -0.33100
S2612       S  0.28953505  0.05295411  0.08260765    -0.33100
H2613       H  0.30508763  0.09971824  0.08623258     0.28300
H2614       H  0.49463601  0.02782334  0.07920328     0.28300
H2615       H  0.45599210  0.10014798  0.09450329     0.18900
H2616       H  0.34038792  0.02258864  0.07183456     0.18900
C2617       C  0.33373994  0.17109258  0.17529733    -0.07000
C2618       C  0.37704463  0.18632607  0.17076353    -0.18100
C2619       C  0.37631435  0.19004502  0.16253831     0.10200
C2620       C  0.33147620  0.18030340  0.15856317    -0.06900
C2621       C  0.28825987  0.16644636  0.16314564    -0.18100
C2622       C  0.28908759  0.16255381  0.17142974     0.10300
S2623       S  0.43318269  0.20252708  0.15757133    -0.33100
S2624       S  0.23282186  0.14947158  0.17671799    -0.33100
H2625       H  0.25850839  0.17981579  0.18323627     0.28300
H2626       H  0.40826978  0.16326259  0.15210228     0.28300
H2627       H  0.41143028  0.19292374  0.17362640     0.18900
H2628       H  0.25375711  0.15930986  0.16026843     0.18900
C2629       C  0.52220610  0.14944223  0.20592549    -0.07000
C2630       C  0.56834315  0.19369575  0.20476773    -0.18100
C2631       C  0.61401428  0.19429674  0.20570481     0.10200
C2632       C  0.61384208  0.14936732  0.20771897    -0.06900
C2633       C  0.56775679  0.10464603  0.20848901    -0.18100
C2634       C  0.52201809  0.10404423  0.20750594     0.10300
S2635       S  0.67097717  0.25440216  0.20476218    -0.33100
S2636       S  0.46366001  0.04482551  0.20796437    -0.33100
H2637       H  0.48474003  0.01437033  0.20966064     0.28300
H2638       H  0.69864498  0.24526517  0.21049271     0.28300
H2639       H  0.56894865  0.22876851  0.20363749     0.18900
H2640       H  0.56777221  0.07006333  0.20975711     0.18900
C2641       C  0.12436033  0.17333634  0.21438540    -0.07000
C2642       C  0.10040551  0.16291850  0.20701302    -0.18100
C2643       C  0.05022318  0.15060396  0.20630123     0.10200
C2644       C  0.02348277  0.15171204  0.21304896    -0.06900
C2645       C  0.04692436  0.16035709  0.22049344    -0.18100
C2646       C  0.09683617  0.17084346  0.22123775     0.10300
S2647       S  0.02184286  0.12994741  0.19670840    -0.33100
S2648       S  0.12378676  0.18268207  0.23101873    -0.33100
H2649       H  0.17278672  0.21856471  0.22864651     0.28300
H2650       H  0.97397981  0.09487647  0.19963747     0.28300
H2651       H  0.12034785  0.16205711  0.20177112     0.18900
H2652       H  0.02690450  0.16077446  0.22574701     0.18900
C2653       C  0.82128234  0.86876886  0.12553449    -0.07000
C2654       C  0.77806378  0.87111502  0.12361911    -0.18100
C2655       C  0.77646358  0.91564288  0.12456883     0.10200
C2656       C  0.81999340  0.96016820  0.12710859    -0.06900
C2657       C  0.86245581  0.95722746  0.12935458    -0.18100
C2658       C  0.86366212  0.91237074  0.12859590     0.10300
S2659       S  0.71700237  0.91238037  0.12274990    -0.33100
S2660       S  0.92181438  0.91458262  0.13114260    -0.33100
H2661       H  0.92041158  0.88453688  0.12477182     0.28300
H2662       H  0.72442555  0.94943478  0.12833786     0.28300
H2663       H  0.74476537  0.83759165  0.12155285     0.18900
H2664       H  0.89616907  0.99087224  0.13126997     0.18900
C2665       C  0.83735999  0.37925448  0.12044490    -0.07000
C2666       C  0.81765857  0.38854125  0.12730287    -0.18100
C2667       C  0.80596901  0.42705275  0.12755910     0.10200
C2668       C  0.81629860  0.45880971  0.12092349    -0.06900
C2669       C  0.83445453  0.44844004  0.11396655    -0.18100
C2670       C  0.84511111  0.40910850  0.11365420     0.10300
S2671       S  0.77528110  0.43164882  0.13635202    -0.33100
S2672       S  0.87065874  0.40053288  0.10455752    -0.33100
H2673       H  0.90200121  0.38503546  0.10815476     0.28300
H2674       H  0.74787313  0.45089018  0.13249183     0.28300
H2675       H  0.80968818  0.36443341  0.13242380     0.18900
H2676       H  0.84256244  0.47253315  0.10884401     0.18900
C2677       C  0.12598581  0.95662434  0.12444561    -0.07000
C2678       C  0.09345380  0.94335217  0.11794585    -0.18100
C2679       C  0.04505818  0.90131131  0.11815538     0.10200
C2680       C  0.02802775  0.87068873  0.12501937    -0.06900
C2681       C  0.05986346  0.88458011  0.13161936    -0.18100
C2682       C  0.10877368  0.92650621  0.13135851     0.10300
S2683       S  0.00687405  0.88915884  0.10942234    -0.33100
S2684       S  0.14875156  0.93668954  0.13976394    -0.33100
H2685       H  0.19275768  0.95179037  0.13529927     0.28300
H2686       H  0.96077324  0.86818110  0.11346429     0.28300
H2687       H  0.10559343  0.96643758  0.11266052     0.18900
H2688       H  0.04779260  0.86085321  0.13683191     0.18900
C2689       C  0.62811217  0.44833611  0.11962093    -0.07000
C2690       C  0.62516938  0.41514189  0.12557467    -0.18100
C2691       C  0.58627755  0.36501638  0.12564939     0.10200
C2692       C  0.54832986  0.34807626  0.11982757    -0.06900
C2693       C  0.55280971  0.38050802  0.11363054    -0.18100
C2694       C  0.59221667  0.43047423  0.11347347     0.10300
S2695       S  0.58801566  0.32411715  0.13314372    -0.33100
S2696       S  0.59316862  0.47016867  0.10551804    -0.33100
H2697       H  0.61324687  0.51475593  0.10996710     0.28300
H2698       H  0.56157634  0.27941163  0.12875809     0.28300
H2699       H  0.65372901  0.42820682  0.13014134     0.18900
H2700       H  0.52390373  0.36765904  0.10912314     0.18900
C2701       C  0.69987155  0.61368488  0.09027539    -0.07000
C2702       C  0.66596023  0.63140825  0.08907147    -0.18100
C2703       C  0.63387756  0.61687877  0.08242384     0.10200
C2704       C  0.63482575  0.58274337  0.07685473    -0.06900
C2705       C  0.66896886  0.56544173  0.07811518    -0.18100
C2706       C  0.70203405  0.58143814  0.08452597     0.10300
S2707       S  0.59089764  0.64076072  0.08141836    -0.33100
S2708       S  0.74868728  0.56219926  0.08463093    -0.33100
H2709       H  0.78795005  0.61001599  0.08684992     0.28300
H2710       H  0.61034189  0.67586871  0.08762706     0.28300
H2711       H  0.66375327  0.65585459  0.09346891     0.18900
H2712       H  0.67153996  0.54042444  0.07387532     0.18900
C2713       C  0.05219707  0.87305285  0.21528165    -0.07000
C2714       C  0.04607927  0.91455539  0.21699734    -0.18100
C2715       C  0.08643108  0.96381048  0.21646203     0.10200
C2716       C  0.13450961  0.97198260  0.21437681    -0.06900
C2717       C  0.14112457  0.93061190  0.21298126    -0.18100
C2718       C  0.10068625  0.88129630  0.21342519     0.10300
S2719       S  0.07323783  0.01435090  0.21795410    -0.33100
S2720       S  0.11225937  0.82960409  0.21190764    -0.33100
H2721       H  0.16165422  0.85841128  0.20901872     0.28300
H2722       H  0.10677110  0.04632692  0.21213638     0.28300
H2723       H  0.00902786  0.90880252  0.21835575     0.18900
H2724       H  0.17836001  0.93714797  0.21156671     0.18900
C2725       C  0.64038634  0.46164358  0.20810808    -0.07000
C2726       C  0.62708345  0.43377319  0.21517826    -0.18100
C2727       C  0.58102290  0.38926707  0.21604603     0.10200
C2728       C  0.54617226  0.37179112  0.20973643    -0.06900
C2729       C  0.56012947  0.39879023  0.20255301    -0.18100
C2730       C  0.60632123  0.44371953  0.20171577     0.10300
S2731       S  0.57011157  0.35590735  0.22527057    -0.33100
S2732       S  0.61794656  0.47799534  0.19257764    -0.33100
H2733       H  0.64093227  0.52588914  0.19610192     0.28300
H2734       H  0.54723076  0.30796795  0.22175975     0.28300
H2735       H  0.65303772  0.44696809  0.22012169     0.18900
H2736       H  0.53397924  0.38591816  0.19764118     0.18900
C2737       C  0.83533262  0.86038317  0.21413245    -0.07000
C2738       C  0.87524203  0.90566297  0.21698669    -0.18100
C2739       C  0.87295287  0.95002852  0.21681177     0.10200
C2740       C  0.82869346  0.94876211  0.21406144    -0.06900
C2741       C  0.78796895  0.90284970  0.21156467    -0.18100
C2742       C  0.79075723  0.85877262  0.21154747     0.10300
S2743       S  0.92942331  0.00730617  0.21946049    -0.33100
S2744       S  0.73627862  0.80046697  0.20851482    -0.33100
H2745       H  0.70805103  0.82150381  0.20553360     0.28300
H2746       H  0.92710295  0.03439016  0.21291580     0.28300
H2747       H  0.90975695  0.90718747  0.21886888     0.18900
H2748       H  0.75368162  0.90150858  0.20962849     0.18900
C2749       C  0.82033196  0.35682339  0.20764658    -0.07000
C2750       C  0.80318972  0.37024280  0.21441919    -0.18100
C2751       C  0.80788514  0.41785248  0.21517906     0.10200
C2752       C  0.83136796  0.45359681  0.20908979    -0.06900
C2753       C  0.84582429  0.43918708  0.20210819    -0.18100
C2754       C  0.84084777  0.39139615  0.20134301     0.10300
S2755       S  0.78135446  0.43142390  0.22374637    -0.33100
S2756       S  0.86353627  0.37779870  0.19238220    -0.33100
H2757       H  0.88644575  0.35364192  0.19618127     0.28300
H2758       H  0.76090002  0.38381310  0.22732369     0.28300
H2759       H  0.78654204  0.34323643  0.21918432     0.18900
H2760       H  0.86247528  0.46587478  0.19729835     0.18900
C2761       C  0.83506461  0.66384748  0.17471994    -0.07000
C2762       C  0.87278136  0.71068458  0.17177410    -0.18100
C2763       C  0.88714353  0.71746035  0.16376675     0.10200
C2764       C  0.86321174  0.67671714  0.15845516    -0.06900
C2765       C  0.82587005  0.62983567  0.16143062    -0.18100
C2766       C  0.81098015  0.62323110  0.16938787     0.10300
S2767       S  0.93743795  0.77834458  0.16077664    -0.33100
S2768       S  0.75824318  0.56323329  0.17217221    -0.33100
H2769       H  0.73857071  0.58274029  0.17777155     0.28300
H2770       H  0.95588502  0.76016530  0.15476832     0.28300
H2771       H  0.89223003  0.74213256  0.17579063     0.18900
H2772       H  0.80582878  0.59849861  0.15741548     0.18900
C2773       C  0.72028254  0.97585200  0.25740519    -0.07000
C2774       C  0.77063995  0.01348318  0.25626075    -0.18100
C2775       C  0.78615969  0.04357197  0.24945731     0.10200
C2776       C  0.75134631  0.03504866  0.24333283    -0.06900
C2777       C  0.70058983  0.99864787  0.24457674    -0.18100
C2778       C  0.68474939  0.96909257  0.25147150     0.10300
S2779       S  0.85008489  0.09467024  0.24929925    -0.33100
S2780       S  0.61924258  0.92169886  0.25206288    -0.33100
H2781       H  0.62889510  0.88396614  0.25476222     0.28300
H2782       H  0.83814665  0.12863611  0.24565978     0.28300
H2783       H  0.79815828  0.02073059  0.26083991     0.18900
H2784       H  0.67316135  0.99179851  0.24000450     0.18900
C2785       C  0.66745105  0.83511575  0.32569099    -0.07000
C2786       C  0.62880688  0.79942644  0.33045149    -0.18100
C2787       C  0.63258083  0.80212006  0.33870365     0.10200
C2788       C  0.67514629  0.84239335  0.34241557    -0.06900
C2789       C  0.71359922  0.87847189  0.33765753    -0.18100
C2790       C  0.70993629  0.87564384  0.32937845     0.10300
S2791       S  0.58408193  0.75021014  0.34415261    -0.33100
S2792       S  0.75958136  0.92642395  0.32387404    -0.33100
H2793       H  0.72768603  0.92571843  0.31786088     0.28300
H2794       H  0.61896729  0.74007544  0.34788564     0.28300
H2795       H  0.59646836  0.76787921  0.32772663     0.18900
H2796       H  0.74609631  0.90971709  0.34039949     0.18900
C2797       C  0.96643755  0.81661687  0.37497051    -0.07000
C2798       C  0.95064213  0.82470973  0.38234526    -0.18100
C2799       C  0.90525962  0.82414094  0.38326904     0.10200
C2800       C  0.87340864  0.81427518  0.37667199    -0.06900
C2801       C  0.88970107  0.80727140  0.36921023    -0.18100
C2802       C  0.93557197  0.80793528  0.36829894     0.10300
S2803       S  0.89196245  0.83866533  0.39299009    -0.33100
S2804       S  0.95117856  0.79524962  0.35861110    -0.33100
H2805       H  0.97595463  0.76993142  0.36128684     0.28300
H2806       H  0.87453999  0.87036911  0.39020138     0.28300
H2807       H  0.97448997  0.83234587  0.38748822     0.18900
H2808       H  0.86591757  0.79985776  0.36407287     0.18900
C2809       C  0.46635266  0.81410576  0.38045487    -0.07000
C2810       C  0.43564389  0.80139164  0.37371444    -0.18100
C2811       C  0.39412242  0.80848477  0.37347211     0.10200
C2812       C  0.38292228  0.82896735  0.38012013    -0.06900
C2813       C  0.41309451  0.84121234  0.38688565    -0.18100
C2814       C  0.45533575  0.83517746  0.38706028     0.10300
S2815       S  0.35670307  0.78985755  0.36456197    -0.33100
S2816       S  0.49541340  0.85864236  0.39562423    -0.33100
H2817       H  0.54083817  0.87860786  0.39138161     0.28300
H2818       H  0.31038021  0.77553808  0.36823982     0.28300
H2819       H  0.44394413  0.78551754  0.36859460     0.18900
H2820       H  0.40470319  0.85730061  0.39196633     0.18900
C2821       C  0.46277551  0.84233089  0.29176907    -0.07000
C2822       C  0.46070577  0.88625976  0.29044426    -0.18100
C2823       C  0.41607259  0.88729527  0.29155078     0.10200
C2824       C  0.37120293  0.84266424  0.29366435    -0.06900
C2825       C  0.37376312  0.79907026  0.29525992    -0.18100
C2826       C  0.41892859  0.79844031  0.29436269     0.10300
S2827       S  0.41957373  0.94739743  0.29045566    -0.33100
S2828       S  0.41742394  0.73980760  0.29625948    -0.33100
H2829       H  0.45263957  0.74599945  0.29040275     0.28300
H2830       H  0.38369233  0.93822961  0.29636990     0.28300
H2831       H  0.49456509  0.92051562  0.28874027     0.18900
H2832       H  0.33987047  0.76455029  0.29684375     0.18900
C2833       C  0.95151237  0.82693121  0.28685385    -0.07000
C2834       C  0.92733887  0.82574292  0.27973936    -0.18100
C2835       C  0.88617868  0.83384558  0.27963515     0.10200
C2836       C  0.87022242  0.84582568  0.28675645    -0.06900
C2837       C  0.89526799  0.84786504  0.29381375    -0.18100
C2838       C  0.93517600  0.83840883  0.29395433     0.10300
S2839       S  0.85379824  0.82469964  0.27037509    -0.33100
S2840       S  0.96445038  0.84312847  0.30339193    -0.33100
H2841       H  0.01360130  0.87235244  0.30047091     0.28300
H2842       H  0.80536014  0.79973387  0.27373253     0.28300
H2843       H  0.93956579  0.81679546  0.27426776     0.18900
H2844       H  0.88367687  0.85705361  0.29932775     0.18900
C2845       C  0.16702329  0.82338641  0.32526484    -0.07000
C2846       C  0.18282297  0.86684877  0.32982809    -0.18100
C2847       C  0.17368472  0.86432671  0.33795458     0.10200
C2848       C  0.14665283  0.81694219  0.34177062    -0.06900
C2849       C  0.13038148  0.77330397  0.33719819    -0.18100
C2850       C  0.13950839  0.77589825  0.32903023     0.10300
S2851       S  0.20152994  0.92351170  0.34308665    -0.33100
S2852       S  0.11250185  0.71718584  0.32374919    -0.33100
H2853       H  0.09371962  0.73405575  0.31761108     0.28300
H2854       H  0.22614475  0.90943624  0.34865396     0.28300
H2855       H  0.20393082  0.90353551  0.32707163     0.18900
H2856       H  0.10976558  0.73672730  0.33999998     0.18900
C2857       C  0.03604273  0.75094209  0.25656331    -0.07000
C2858       C  0.00213152  0.69945666  0.25531426    -0.18100
C2859       C  0.96963577  0.68230651  0.24874085     0.10200
C2860       C  0.97122222  0.71700223  0.24303743    -0.06900
C2861       C  0.00596955  0.76835140  0.24422565    -0.18100
C2862       C  0.03838794  0.78541272  0.25077016     0.10300
S2863       S  0.92469536  0.61609024  0.24833252    -0.33100
S2864       S  0.08400722  0.85143718  0.25104826    -0.33100
H2865       H  0.12309731  0.84392039  0.25376577     0.28300
H2866       H  0.88404868  0.62366684  0.24666066     0.28300
H2867       H  0.99925809  0.67231886  0.25968626     0.18900
H2868       H  0.00902526  0.79572229  0.23988331     0.18900
C2869       C  0.95444006  0.11401310  0.37502852    -0.07000
C2870       C  0.94428501  0.07980415  0.38121708    -0.18100
C2871       C  0.90354649  0.03076534  0.38088901     0.10200
C2872       C  0.87017244  0.01531818  0.37439198    -0.06900
C2873       C  0.88058518  0.04885582  0.36808843    -0.18100
C2874       C  0.92264302  0.09793448  0.36829702     0.10300
S2875       S  0.89653596  0.98895118  0.38889977    -0.33100
S2876       S  0.93322546  0.14049389  0.36019584    -0.33100
H2877       H  0.89379373  0.10598078  0.35534903     0.28300
H2878       H  0.87787060  0.94595571  0.38409147     0.28300
H2879       H  0.96920386  0.09090297  0.38628185     0.18900
H2880       H  0.85463986  0.03720805  0.36316428     0.18900
C2881       C  0.45066341  0.61238788  0.38152373    -0.07000
C2882       C  0.42594944  0.60219942  0.37421153    -0.18100
C2883       C  0.37655588  0.56251852  0.37329938     0.10200
C2884       C  0.35091153  0.53192475  0.37988030    -0.06900
C2885       C  0.37483649  0.54376451  0.38729721    -0.18100
C2886       C  0.42451140  0.58308081  0.38816880     0.10300
S2887       S  0.34659333  0.55266598  0.36375501    -0.33100
S2888       S  0.45308784  0.59136778  0.39776327    -0.33100
H2889       H  0.50214602  0.60818075  0.39498042     0.28300
H2890       H  0.38851783  0.58960685  0.35958464     0.28300
H2891       H  0.44567846  0.62568940  0.36918015     0.18900
H2892       H  0.35574273  0.52043041  0.39237933     0.18900
C2893       C  0.16797281  0.03307517  0.37607479    -0.07000
C2894       C  0.17666567  0.05752133  0.36868473    -0.18100
C2895       C  0.17492403  0.10228920  0.36778588     0.10200
C2896       C  0.16289778  0.12268855  0.37435686    -0.06900
C2897       C  0.15258598  0.09724213  0.38163690    -0.18100
C2898       C  0.15442165  0.05293277  0.38255211     0.10300
S2899       S  0.19136090  0.13301803  0.35829071    -0.33100
S2900       S  0.13689538  0.02275674  0.39209146    -0.33100
H2901       H  0.10850929  0.97376406  0.38902708     0.28300
H2902       H  0.21743050  0.18222632  0.36132787     0.28300
H2903       H  0.18661408  0.04261219  0.36362459     0.18900
H2904       H  0.14261567  0.11204011  0.38671522     0.18900
C2905       C  0.17988620  0.63245934  0.37977163    -0.07000
C2906       C  0.13100841  0.59239724  0.37843569    -0.18100
C2907       C  0.11921512  0.54251827  0.37941207     0.10200
C2908       C  0.15751228  0.53189963  0.38147276    -0.06900
C2909       C  0.20611792  0.57206852  0.38307495    -0.18100
C2910       C  0.21772849  0.62213433  0.38224084     0.10300
S2911       S  0.05425260  0.49436383  0.37834896    -0.33100
S2912       S  0.28185018  0.67068406  0.38402640    -0.33100
H2913       H  0.28252695  0.70471474  0.37840011     0.28300
H2914       H  0.05579423  0.46458467  0.38455120     0.28300
H2915       H  0.10132030  0.60012848  0.37683077     0.18900
H2916       H  0.23595334  0.56448692  0.38463951     0.18900
C2917       C  0.98165540  0.13889002  0.28674429    -0.07000
C2918       C  0.96031742  0.11292047  0.29381158    -0.18100
C2919       C  0.91087260  0.07307531  0.29408852     0.10200
C2920       C  0.88191507  0.05839157  0.28710954    -0.06900
C2921       C  0.90347174  0.08314743  0.27996955    -0.18100
C2922       C  0.95294162  0.12377704  0.27971814     0.10300
S2923       S  0.88638967  0.03961411  0.30329847    -0.33100
S2924       S  0.97731488  0.15782706  0.27056691    -0.33100
H2925       H  0.93504156  0.12752444  0.26585113     0.28300
H2926       H  0.92658042  0.07291740  0.30814291     0.28300
H2927       H  0.98271974  0.12396038  0.29915703     0.18900
H2928       H  0.88100872  0.07116207  0.27463204     0.18900
C2929       C  0.38686383  0.54642845  0.29094930    -0.07000
C2930       C  0.40866952  0.56598035  0.29840052    -0.18100
C2931       C  0.45196668  0.61362341  0.29917379     0.10200
C2932       C  0.47386792  0.64340253  0.29236964    -0.06900
C2933       C  0.45073054  0.62471962  0.28500695    -0.18100
C2934       C  0.40790071  0.57738286  0.28421436     0.10300
S2935       S  0.47882295  0.63267274  0.30889683    -0.33100
S2936       S  0.38165567  0.56016282  0.27442071    -0.33100
H2937       H  0.33167667  0.54065757  0.27694257     0.28300
H2938       H  0.52884730  0.65205295  0.30636911     0.28300
H2939       H  0.39293721  0.54326169  0.30366263     0.18900
H2940       H  0.46624292  0.64747790  0.27973713     0.18900
C2941       C  0.16730859  0.02539950  0.28714020    -0.07000
C2942       C  0.12694638  0.03216406  0.28504069    -0.18100
C2943       C  0.13154635  0.07983194  0.28523183     0.10200
C2944       C  0.17827961  0.12235759  0.28727084    -0.06900
C2945       C  0.21888410  0.11554931  0.28923954    -0.18100
C2946       C  0.21407790  0.06782388  0.28913452     0.10300
S2947       S  0.07516166  0.08291163  0.28347969    -0.33100
S2948       S  0.26953013  0.06386434  0.29135070    -0.33100
H2949       H  0.25856711  0.02466095  0.28598803     0.28300
H2950       H  0.08361150  0.11626266  0.28976795     0.28300
H2951       H  0.09077047  0.99972138  0.28364989     0.18900
H2952       H  0.25495238  0.14778513  0.29074592     0.18900
C2953       C  0.16638907  0.61934800  0.29051376    -0.07000
C2954       C  0.18886072  0.60883884  0.28414009    -0.18100
C2955       C  0.19911825  0.56936062  0.28447278     0.10200
C2956       C  0.18517042  0.53805096  0.29124772    -0.06900
C2957       C  0.16377213  0.54911451  0.29770973    -0.18100
C2958       C  0.15388624  0.58904446  0.29740512     0.10300
S2959       S  0.23154541  0.56197206  0.27612270    -0.33100
S2960       S  0.12249163  0.59709698  0.30582375    -0.33100
H2961       H  0.09496181  0.61429140  0.30147927     0.28300
H2962       H  0.25576672  0.54131517  0.28050676     0.28300
H2963       H  0.20020217  0.63273551  0.27894458     0.18900
H2964       H  0.15218643  0.52488441  0.30286499     0.18900
C2965       C  0.17140017  0.33944852  0.32526958    -0.07000
C2966       C  0.21883914  0.35462784  0.32862507    -0.18100
C2967       C  0.22398112  0.34424119  0.33658493     0.10200
C2968       C  0.18067622  0.31768771  0.34137934    -0.06900
C2969       C  0.13330701  0.30252126  0.33801349    -0.18100
C2970       C  0.12816398  0.31340189  0.33010433     0.10300
S2971       S  0.28584331  0.36300067  0.34042456    -0.33100
S2972       S  0.06634045  0.29677625  0.32646318    -0.33100
H2973       H  0.03882539  0.26927744  0.33311949     0.28300
H2974       H  0.31322684  0.39090767  0.33378827     0.28300
H2975       H  0.25195318  0.37337327  0.32491525     0.18900
H2976       H  0.10016734  0.28404517  0.34172347     0.18900
C2977       C  0.25828042  0.27792558  0.25773665    -0.07000
C2978       C  0.25364578  0.23001411  0.25740267    -0.18100
C2979       C  0.26728452  0.21338210  0.25059470     0.10200
C2980       C  0.28620182  0.24534885  0.24394509    -0.06900
C2981       C  0.29105134  0.29326997  0.24428066    -0.18100
C2982       C  0.27642928  0.30942936  0.25101469     0.10300
S2983       S  0.26258564  0.15230102  0.25058857    -0.33100
S2984       S  0.27850908  0.36904173  0.25045162    -0.33100
H2985       H  0.23298565  0.35261155  0.25455229     0.28300
H2986       H  0.24295412  0.13806144  0.25827167     0.28300
H2987       H  0.23977511  0.20580055  0.26254439     0.18900
H2988       H  0.30449727  0.31755564  0.23913560     0.18900
C2989       C  0.07946554  0.36988714  0.40987377    -0.07000
C2990       C  0.05415352  0.33275510  0.41566568    -0.18100
C2991       C  0.03783203  0.34371933  0.42278601     0.10200
C2992       C  0.04642391  0.39285886  0.42413570    -0.06900
C2993       C  0.07051712  0.42955475  0.41825798    -0.18100
C2994       C  0.08665149  0.41866861  0.41113959     0.10300
S2995       S  0.00914332  0.29559750  0.43028303    -0.33100
S2996       S  0.11443958  0.46701774  0.40362692    -0.33100
H2997       H  0.10547705  0.50265258  0.40739289     0.28300
H2998       H  0.01635089  0.25903351  0.42643682     0.28300
H2999       H  0.04830144  0.29534889  0.41468090     0.18900
H3000       H  0.07675837  0.46707620  0.41927912     0.18900
C3001       C  0.00089169  0.48363005  0.50878637    -0.07000
C3002       C  0.95237472  0.46672972  0.50567273    -0.18100
C3003       C  0.94468702  0.47344802  0.49767396     0.10200
C3004       C  0.98637633  0.49758280  0.49249348    -0.06900
C3005       C  0.03487935  0.51558462  0.49568093    -0.18100
C3006       C  0.04246362  0.50795714  0.50361188     0.10300
S3007       S  0.88091105  0.45178892  0.49459033    -0.33100
S3008       S  0.10583045  0.52617778  0.50648115    -0.33100
H3009       H  0.09172608  0.48387278  0.51132045     0.28300
H3010       H  0.89380080  0.48995850  0.48893955     0.28300
H3011       H  0.91990136  0.44886737  0.50954196     0.18900
H3012       H  0.06748279  0.53292933  0.49183747     0.18900
C3013       C  0.27647898  0.77032063  0.45346220    -0.07000
C3014       C  0.28451254  0.73074939  0.45113287    -0.18100
C3015       C  0.24573933  0.68043415  0.45138748     0.10200
C3016       C  0.19750247  0.66908831  0.45400527    -0.06900
C3017       C  0.18916845  0.70867663  0.45608761    -0.18100
C3018       C  0.22753528  0.75879391  0.45571168     0.10300
S3019       S  0.26103923  0.63276871  0.44868349    -0.33100
S3020       S  0.21072399  0.80614547  0.45773400    -0.33100
H3021       H  0.23829484  0.83625126  0.45127720     0.28300
H3022       H  0.22990478  0.59738242  0.45436572     0.28300
H3023       H  0.32180621  0.73881795  0.44938128     0.18900
H3024       H  0.15190838  0.70051576  0.45789040     0.18900
C3025       C  0.68914605  0.18334504  0.45982417    -0.07000
C3026       C  0.72037736  0.19707394  0.46649817    -0.18100
C3027       C  0.76974745  0.23830623  0.46625948     0.10200
C3028       C  0.78845510  0.26661189  0.45917753    -0.06900
C3029       C  0.75653998  0.25342853  0.45261508    -0.18100
C3030       C  0.70728237  0.21319447  0.45291243     0.10300
S3031       S  0.80745815  0.25093265  0.47504548    -0.33100
S3032       S  0.66856117  0.20308288  0.44433144    -0.33100
H3033       H  0.62427987  0.18776459  0.44870276     0.28300
H3034       H  0.85309565  0.26692322  0.47101542     0.28300
H3035       H  0.70706791  0.17430601  0.47180350     0.18900
H3036       H  0.76950830  0.27578418  0.44725923     0.18900
C3037       C  0.35770278  0.92956327  0.42421183    -0.07000
C3038       C  0.31768182  0.87983569  0.42352941    -0.18100
C3039       C  0.28521386  0.86411947  0.41700550     0.10200
C3040       C  0.29266003  0.89856532  0.41087763    -0.06900
C3041       C  0.33216815  0.94844020  0.41159292    -0.18100
C3042       C  0.36522002  0.96396754  0.41806368     0.10300
S3043       S  0.23401115  0.80003146  0.41703203    -0.33100
S3044       S  0.41845793  0.02687589  0.41777729    -0.33100
H3045       H  0.45256216  0.01354839  0.42096991     0.28300
H3046       H  0.20013501  0.80990488  0.41288987     0.28300
H3047       H  0.31084138  0.85305730  0.42821783     0.18900
H3048       H  0.33904578  0.97490284  0.40685293     0.18900
C3049       C  0.49249930  0.97591611  0.50853794    -0.07000
C3050       C  0.52179275  0.95791728  0.50493477    -0.18100
C3051       C  0.53705130  0.96878396  0.49700260     0.10200
C3052       C  0.52206036  0.99760164  0.49240351    -0.06900
C3053       C  0.49332430  0.01604871  0.49603078    -0.18100
C3054       C  0.47788260  0.00507605  0.50393001     0.10300
S3055       S  0.57716818  0.94632668  0.49317984    -0.33100
S3056       S  0.43695028  0.02703641  0.50756428    -0.33100
H3057       H  0.40822062  0.98500614  0.51242461     0.28300
H3058       H  0.60328108  0.98645081  0.48785761     0.28300
H3059       H  0.53456942  0.93674531  0.50840361     0.18900
H3060       H  0.47998579  0.03667865  0.49254822     0.18900
C3061       C  0.20931189  0.69063039  0.54286403    -0.07000
C3062       C  0.24509001  0.69993639  0.54874074    -0.18100
C3063       C  0.29423370  0.74037777  0.54813936     0.10200
C3064       C  0.30838517  0.77299881  0.54152641    -0.06900
C3065       C  0.27324334  0.76290193  0.53550804    -0.18100
C3066       C  0.22377734  0.72257928  0.53615247     0.10300
S3067       S  0.33700272  0.74873176  0.55609702    -0.33100
S3068       S  0.18003568  0.71641538  0.52851980    -0.33100
H3069       H  0.13806668  0.69900785  0.53355345     0.28300
H3070       H  0.38134681  0.77378537  0.55158415     0.28300
H3071       H  0.23485291  0.67509347  0.55381038     0.18900
H3072       H  0.28333743  0.78850913  0.53054288     0.18900
C3073       C  0.80153918  0.28709080  0.54792863    -0.07000
C3074       C  0.75408707  0.28170332  0.54933287    -0.18100
C3075       C  0.71054186  0.23407244  0.54931319     0.10200
C3076       C  0.71479989  0.19076878  0.54795534    -0.06900
C3077       C  0.76261113  0.19629589  0.54684214    -0.18100
C3078       C  0.80599336  0.24384598  0.54690496     0.10300
S3079       S  0.64994153  0.22980485  0.55051276    -0.33100
S3080       S  0.86705469  0.24885803  0.54600443    -0.33100
H3081       H  0.85011593  0.19698256  0.54581164     0.28300
H3082       H  0.66687291  0.28164440  0.55013458     0.28300
H3083       H  0.75110886  0.31511864  0.55015097     0.18900
H3084       H  0.76590540  0.16310974  0.54596252     0.18900
C3085       C  0.79855305  0.47648000  0.45905592    -0.07000
C3086       C  0.78843289  0.50089420  0.46519558    -0.18100
C3087       C  0.74742204  0.50933667  0.46476479     0.10200
C3088       C  0.71528350  0.49269317  0.45806659    -0.06900
C3089       C  0.72516447  0.46766631  0.45200801    -0.18100
C3090       C  0.76570349  0.45890336  0.45246913     0.10300
S3091       S  0.73975641  0.54377199  0.47276534    -0.33100
S3092       S  0.77301172  0.42405848  0.44449265    -0.33100
H3093       H  0.79151079  0.39948432  0.44928748     0.28300
H3094       H  0.72164779  0.56888967  0.46800509     0.28300
H3095       H  0.81382590  0.51539792  0.47019334     0.18900
H3096       H  0.70021721  0.45352082  0.44695005     0.18900
C3097       C  0.21082791  0.47549580  0.45467630    -0.07000
C3098       C  0.23646488  0.49082952  0.46190034    -0.18100
C3099       C  0.28759675  0.50645661  0.46243519     0.10200
C3100       C  0.31378981  0.50475012  0.45567646    -0.06900
C3101       C  0.28842313  0.49040274  0.44839100    -0.18100
C3102       C  0.23729482  0.47561000  0.44782133     0.10300
S3103       S  0.31786682  0.53082049  0.47181599    -0.33100
S3104       S  0.20753234  0.45496524  0.43829071    -0.33100
H3105       H  0.16013532  0.41904902  0.44126103     0.28300
H3106       H  0.36391833  0.56740408  0.46851446     0.28300
H3107       H  0.21698986  0.49278306  0.46712187     0.18900
H3108       H  0.30788968  0.48843349  0.44317371     0.18900
C3109       C  0.50242346  0.29074386  0.45917833    -0.07000
C3110       C  0.50953779  0.27372088  0.45183626    -0.18100
C3111       C  0.50749474  0.22745633  0.45103811     0.10200
C3112       C  0.49604402  0.19562369  0.45768273    -0.06900
C3113       C  0.49043227  0.21330151  0.46510377    -0.18100
C3114       C  0.49328391  0.26023151  0.46591706     0.10300
S3115       S  0.52314364  0.21320254  0.44147573    -0.33100
S3116       S  0.48249915  0.27767562  0.47558829    -0.33100
H3117       H  0.45565577  0.30082825  0.47288213     0.28300
H3118       H  0.55092536  0.19197068  0.44453208     0.28300
H3119       H  0.51783381  0.29734887  0.44664595     0.18900
H3120       H  0.48224206  0.18972887  0.47029179     0.18900
C3121       C  0.47683091  0.77844045  0.45521147    -0.07000
C3122       C  0.49831152  0.77093264  0.44839208    -0.18100
C3123       C  0.51184470  0.73365468  0.44812823     0.10200
C3124       C  0.50398457  0.70324179  0.45485410    -0.06900
C3125       C  0.48143111  0.70994939  0.46160223    -0.18100
C3126       C  0.46665197  0.74625719  0.46178218     0.10300
S3127       S  0.54031556  0.72805121  0.43912395    -0.33100
S3128       S  0.43242586  0.74761793  0.47036890    -0.33100
H3129       H  0.40432479  0.76564394  0.46638111     0.28300
H3130       H  0.56849478  0.70840508  0.44258965     0.28300
H3131       H  0.50648212  0.79557617  0.44333924     0.18900
H3132       H  0.47336564  0.68527669  0.46665176     0.18900
C3133       C  0.58279283  0.62500450  0.42460270    -0.07000
C3134       C  0.63431084  0.65897967  0.42340670    -0.18100
C3135       C  0.65131269  0.69285231  0.41701930     0.10200
C3136       C  0.61632142  0.69198388  0.41145448    -0.06900
C3137       C  0.56497002  0.65790004  0.41268001    -0.18100
C3138       C  0.54801722  0.62453488  0.41906487     0.10300
S3139       S  0.71750258  0.73842826  0.41668674    -0.33100
S3140       S  0.48157909  0.58053072  0.41952060    -0.33100
H3141       H  0.48873678  0.53970448  0.42125108     0.28300
H3142       H  0.71036186  0.77838749  0.41431491     0.28300
H3143       H  0.66146305  0.66083496  0.42768757     0.18900
H3144       H  0.53749972  0.65620773  0.40849570     0.18900
C3145       C  0.19447496  0.47416155  0.54006386    -0.07000
C3146       C  0.24047274  0.51862716  0.53880053    -0.18100
C3147       C  0.28660844  0.51957943  0.53957440     0.10200
C3148       C  0.28701105  0.47500917  0.54166782    -0.06900
C3149       C  0.24107880  0.43037866  0.54261707    -0.18100
C3150       C  0.19521876  0.42924299  0.54168444     0.10300
S3151       S  0.34335226  0.57936530  0.53823241    -0.33100
S3152       S  0.13885345  0.36876713  0.54244335    -0.33100
H3153       H  0.11113433  0.38004746  0.53702053     0.28300
H3154       H  0.37246692  0.57029559  0.54366084     0.28300
H3155       H  0.24061132  0.55339365  0.53760159     0.18900
H3156       H  0.24089513  0.39574519  0.54396305     0.18900
C3157       C  0.78814541  0.48424847  0.54835220    -0.07000
C3158       C  0.75577469  0.45393092  0.54234483    -0.18100
C3159       C  0.70534754  0.44141062  0.54219998     0.10200
C3160       C  0.68688839  0.46078649  0.54805154    -0.06900
C3161       C  0.71881269  0.48993299  0.55421103    -0.18100
C3162       C  0.76936143  0.50205358  0.55441278     0.10300
S3163       S  0.66596430  0.39928357  0.53454008    -0.33100
S3164       S  0.80792954  0.54215881  0.56232234    -0.33100
H3165       H  0.85519965  0.55791443  0.55889255     0.28300
H3166       H  0.62140945  0.37699810  0.53904409     0.28300
H3167       H  0.76969560  0.43899739  0.53780900     0.18900
H3168       H  0.70494305  0.50532922  0.55867613     0.18900
C3169       C  0.50537005  0.76865078  0.54246726    -0.07000
C3170       C  0.48734099  0.73736205  0.54913445    -0.18100
C3171       C  0.48040419  0.68880236  0.54906985     0.10200
C3172       C  0.49338383  0.67101367  0.54224521    -0.06900
C3173       C  0.51028404  0.70155569  0.53549749    -0.18100
C3174       C  0.51621810  0.75005263  0.53550589     0.10300
S3175       S  0.45378702  0.65142057  0.55788395    -0.33100
S3176       S  0.54097593  0.78854807  0.52676177    -0.33100
H3177       H  0.53571707  0.75001488  0.52165505     0.28300
H3178       H  0.43120382  0.60425355  0.55415594     0.28300
H3179       H  0.47738380  0.75044460  0.55441847     0.18900
H3180       H  0.52076761  0.68812264  0.53031849     0.18900
C3181       C  0.48881849  0.25752507  0.54776897    -0.07000
C3182       C  0.51243377  0.25114100  0.54114174    -0.18100
C3183       C  0.52405953  0.21264195  0.54082893     0.10200
C3184       C  0.51032956  0.17837130  0.54719182    -0.06900
C3185       C  0.48783295  0.18549865  0.55392487    -0.18100
C3186       C  0.47666548  0.22450559  0.55425243     0.10300
S3187       S  0.55835154  0.21091808  0.53227877    -0.33100
S3188       S  0.44455467  0.22839366  0.56288290    -0.33100
H3189       H  0.41774067  0.24818711  0.55898906     0.28300
H3190       H  0.58338530  0.18898303  0.53609244     0.28300
H3191       H  0.52327199  0.27737997  0.53624684     0.18900
H3192       H  0.47687849  0.15920849  0.55881080     0.18900
C3193       C  0.50486319  0.48199530  0.50888186    -0.07000
C3194       C  0.45681967  0.45339059  0.50552325    -0.18100
C3195       C  0.45059402  0.43994947  0.49751815     0.10200
C3196       C  0.49331845  0.45591274  0.49262958    -0.06900
C3197       C  0.54138638  0.48302385  0.49605967    -0.18100
C3198       C  0.54764445  0.49685549  0.50403887     0.10300
S3199       S  0.38715742  0.40138810  0.49397257    -0.33100
S3200       S  0.61120721  0.53675009  0.50746901    -0.33100
H3201       H  0.59915406  0.56550349  0.51254906     0.28300
H3202       H  0.39946596  0.37594591  0.48825871     0.28300
H3203       H  0.42368972  0.44028484  0.50921285     0.18900
H3204       H  0.57463921  0.49670287  0.49238389     0.18900
C3205       C  0.04749873  0.63692285  0.92386198    -0.07000
C3206       C  0.01155674  0.62306075  0.91779744    -0.18100
C3207       C  0.02290287  0.64995139  0.91063271     0.10200
C3208       C  0.07125948  0.69235683  0.90943883    -0.06900
C3209       C  0.10676178  0.70663138  0.91555181    -0.18100
C3210       C  0.09520047  0.68023765  0.92272990     0.10300
S3211       S  0.97488836  0.62667681  0.90311975    -0.33100
S3212       S  0.14214079  0.70577182  0.93036632    -0.33100
H3213       H  0.10787833  0.69431424  0.93663248     0.28300
H3214       H  0.00817727  0.63549987  0.89680333     0.28300
H3215       H  0.97473052  0.59008718  0.91854838     0.18900
H3216       H  0.14372469  0.73943516  0.91479366     0.18900
C3217       C  0.15642597  0.82856963  0.84133118    -0.07000
C3218       C  0.10948427  0.79466393  0.83801170    -0.18100
C3219       C  0.10516802  0.78021409  0.83004072     0.10200
C3220       C  0.14879903  0.79967710  0.82528508    -0.06900
C3221       C  0.19576242  0.83261816  0.82866566    -0.18100
C3222       C  0.20004143  0.84776979  0.83656965     0.10300
S3223       S  0.04414790  0.73577767  0.82607421    -0.33100
S3224       S  0.26094295  0.89458826  0.84029726    -0.33100
H3225       H  0.28871390  0.89994423  0.83338588     0.28300
H3226       H  0.01574315  0.73511739  0.83265330     0.28300
H3227       H  0.07626930  0.77873020  0.84172268     0.18900
H3228       H  0.22897080  0.84906089  0.82495452     0.18900
C3229       C  0.46425239  0.83238703  0.79186570    -0.07000
C3230       C  0.44033400  0.82637874  0.78453793    -0.18100
C3231       C  0.39588025  0.82784674  0.78383172     0.10200
C3232       C  0.37449598  0.83689639  0.79058985    -0.06900
C3233       C  0.39800135  0.84229199  0.79798437    -0.18100
C3234       C  0.44270858  0.84045381  0.79868574     0.10300
S3235       S  0.36729617  0.81481812  0.77417473    -0.33100
S3236       S  0.47131474  0.85072887  0.80831853    -0.33100
H3237       H  0.52116704  0.87877184  0.80557415     0.28300
H3238       H  0.31840185  0.78239737  0.77700123     0.28300
H3239       H  0.45589794  0.81921205  0.77926480     0.18900
H3240       H  0.38203942  0.84908314  0.80323857     0.18900
C3241       C  0.86916769  0.81895578  0.78705166    -0.07000
C3242       C  0.90883978  0.86580945  0.78449004    -0.18100
C3243       C  0.95915625  0.87811492  0.78522327     0.10200
C3244       C  0.97037854  0.84251038  0.78847145    -0.06900
C3245       C  0.93087041  0.79572854  0.79097916    -0.18100
C3246       C  0.88073913  0.78334701  0.79023987     0.10300
S3247       S  0.00697189  0.94055430  0.78231603    -0.33100
S3248       S  0.83374177  0.72072982  0.79318117    -0.33100
H3249       H  0.80169238  0.71381842  0.78677736     0.28300
H3250       H  0.04152143  0.94592368  0.78822858     0.28300
H3251       H  0.90079807  0.89397638  0.78217253     0.18900
H3252       H  0.93905271  0.76771914  0.79333131     0.18900
C3253       C  0.58073580  0.93642590  0.92382883    -0.07000
C3254       C  0.56506312  0.88513257  0.92282338    -0.18100
C3255       C  0.57775028  0.86747243  0.91606699     0.10200
C3256       C  0.60675587  0.90157031  0.91002292    -0.06900
C3257       C  0.62337559  0.95293959  0.91108226    -0.18100
C3258       C  0.61012951  0.97051363  0.91779316     0.10300
S3259       S  0.55720327  0.80131012  0.91571783    -0.33100
S3260       S  0.62846262  0.03606235  0.91792553    -0.33100
H3261       H  0.57972051  0.02612468  0.91985308     0.28300
H3262       H  0.60096978  0.80768485  0.91197529     0.28300
H3263       H  0.54314045  0.85835915  0.92740522     0.18900
H3264       H  0.64500819  0.97950691  0.90645764     0.18900
C3265       C  0.34936791  0.82752440  0.88028993    -0.07000
C3266       C  0.39050660  0.87548024  0.87876172    -0.18100
C3267       C  0.43991025  0.88479976  0.87922535     0.10200
C3268       C  0.44881122  0.84500236  0.88111734    -0.06900
C3269       C  0.40752566  0.79737671  0.88289836    -0.18100
C3270       C  0.35811624  0.78805521  0.88239668     0.10300
S3271       S  0.48956240  0.94849965  0.87755383    -0.33100
S3272       S  0.30808076  0.72416363  0.88384226    -0.33100
H3273       H  0.27778540  0.72518721  0.87769307     0.28300
H3274       H  0.52153675  0.94674038  0.88334068     0.28300
H3275       H  0.38408749  0.90615220  0.87724451     0.18900
H3276       H  0.41352925  0.76623566  0.88424739     0.18900
C3277       C  0.85179676  0.82750414  0.87345735    -0.07000
C3278       C  0.87813454  0.83916808  0.88064609    -0.18100
C3279       C  0.92251429  0.83729403  0.88147175     0.10200
C3280       C  0.94052506  0.82160678  0.87502517    -0.06900
C3281       C  0.91545347  0.81213946  0.86769906    -0.18100
C3282       C  0.87125163  0.81472979  0.86685683     0.10300
S3283       S  0.95697014  0.85796131  0.89065713    -0.33100
S3284       S  0.84054646  0.79935970  0.85735855    -0.33100
H3285       H  0.79117970  0.77455800  0.86035566     0.28300
H3286       H  0.93149372  0.88172954  0.89371104     0.28300
H3287       H  0.86370772  0.84996045  0.88567052     0.18900
H3288       H  0.92965132  0.80135666  0.86264124     0.18900
C3289       C  0.66158853  0.83891609  0.84077430    -0.07000
C3290       C  0.61443006  0.82758615  0.83766437    -0.18100
C3291       C  0.60843751  0.83553566  0.82967046     0.10200
C3292       C  0.65000632  0.85370023  0.82451794    -0.06900
C3293       C  0.69751621  0.86699640  0.82769522    -0.18100
C3294       C  0.70371638  0.85954680  0.83568509     0.10300
S3295       S  0.54764719  0.82445918  0.82651020    -0.33100
S3296       S  0.76568079  0.87395026  0.83881392    -0.33100
H3297       H  0.74877531  0.83242664  0.84392815     0.28300
H3298       H  0.56592132  0.86061244  0.82042579     0.28300
H3299       H  0.58204298  0.81360992  0.84154177     0.18900
H3300       H  0.72989169  0.88063591  0.82383028     0.18900
C3301       C  0.14845236  0.12891368  0.78737481    -0.07000
C3302       C  0.13773374  0.09929621  0.79420592    -0.18100
C3303       C  0.14297587  0.05671258  0.79430677     0.10200
C3304       C  0.15963369  0.04332701  0.78742932    -0.06900
C3305       C  0.16914455  0.07198549  0.78053458    -0.18100
C3306       C  0.16449997  0.11513426  0.78045589     0.10300
S3307       S  0.12700639  0.02074599  0.80334829    -0.33100
S3308       S  0.18450794  0.15477939  0.77178497    -0.33100
H3309       H  0.18598918  0.11958687  0.76662525     0.28300
H3310       H  0.10861602  0.97383030  0.79964422     0.28300
H3311       H  0.12492128  0.10931623  0.79951436     0.18900
H3312       H  0.18252683  0.06178311  0.77531699     0.18900
C3313       C  0.16699315  0.63578222  0.79254745    -0.07000
C3314       C  0.14434523  0.60204032  0.79882963    -0.18100
C3315       C  0.13538718  0.55252275  0.79835882     0.10200
C3316       C  0.14955910  0.53630490  0.79146278    -0.06900
C3317       C  0.17346375  0.57069354  0.78530028    -0.18100
C3318       C  0.18315561  0.62019332  0.78583756     0.10300
S3319       S  0.10316757  0.51127961  0.80656035    -0.33100
S3320       S  0.21778338  0.66249797  0.77786100    -0.33100
H3321       H  0.24319774  0.70512423  0.78272060     0.28300
H3322       H  0.07757727  0.46715248  0.80202509     0.28300
H3323       H  0.13115167  0.61343044  0.80394179     0.18900
H3324       H  0.18631822  0.55941470  0.78013188     0.18900
C3325       C  0.35010634  0.53366164  0.79352533    -0.07000
C3326       C  0.38840180  0.53867874  0.79863115    -0.18100
C3327       C  0.43765914  0.57973874  0.79797209     0.10200
C3328       C  0.44912862  0.61650429  0.79203156    -0.06900
C3329       C  0.41030064  0.61215416  0.78712879    -0.18100
C3330       C  0.36107560  0.57184457  0.78790151     0.10300
S3331       S  0.48455272  0.58163921  0.80460908    -0.33100
S3332       S  0.31355146  0.57095250  0.78151512    -0.33100
H3333       H  0.27327415  0.54459671  0.78679649     0.28300
H3334       H  0.52527388  0.60607881  0.79935168     0.28300
H3335       H  0.38056302  0.50916462  0.80287248     0.18900
H3336       H  0.41818730  0.64093458  0.78274147     0.18900
C3337       C  0.86097775  0.01631555  0.78558863    -0.07000
C3338       C  0.90926139  0.02290053  0.78461836    -0.18100
C3339       C  0.95184703  0.07115373  0.78472151     0.10200
C3340       C  0.94600820  0.11394560  0.78554313    -0.06900
C3341       C  0.89744183  0.10714084  0.78615581    -0.18100
C3342       C  0.85495704  0.05893277  0.78616270     0.10300
S3343       S  0.01246733  0.07521042  0.78446311    -0.33100
S3344       S  0.79294181  0.05211678  0.78669713    -0.33100
H3345       H  0.80870976  0.10340652  0.78763872     0.28300
H3346       H  0.03398395  0.11309844  0.79024649     0.28300
H3347       H  0.91402477  0.99025700  0.78424036     0.18900
H3348       H  0.89292381  0.13984817  0.78664315     0.18900
C3349       C  0.29686839  0.37489580  0.90914656    -0.07000
C3350       C  0.33354586  0.42560354  0.91020391    -0.18100
C3351       C  0.36567811  0.44197129  0.91675023     0.10200
C3352       C  0.36070612  0.40734966  0.92269815    -0.06900
C3353       C  0.32436345  0.35634641  0.92164425    -0.18100
C3354       C  0.29211471  0.33992461  0.91504275     0.10300
S3355       S  0.41381705  0.50723377  0.91687689    -0.33100
S3356       S  0.24328782  0.27485653  0.91486525    -0.33100
H3357       H  0.20595115  0.28493204  0.91210096     0.28300
H3358       H  0.45066594  0.49852838  0.92025795     0.28300
H3359       H  0.33787577  0.45293891  0.90579119     0.18900
H3360       H  0.31943007  0.32933637  0.92618662     0.18900
C3361       C  0.18128464  0.34387341  0.82563205    -0.07000
C3362       C  0.15349662  0.36436592  0.82900363    -0.18100
C3363       C  0.13726557  0.35521264  0.83690171     0.10200
C3364       C  0.15015624  0.32598619  0.84181214    -0.06900
C3365       C  0.17891529  0.30633538  0.83849377    -0.18100
C3366       C  0.19500644  0.31538922  0.83056528     0.10300
S3367       S  0.09683467  0.37874519  0.84011550    -0.33100
S3368       S  0.23517804  0.29177704  0.82724807    -0.33100
H3369       H  0.26281484  0.33128258  0.82189471     0.28300
H3370       H  0.06540521  0.33626975  0.84472901     0.28300
H3371       H  0.14134506  0.38517254  0.82531783     0.18900
H3372       H  0.19071078  0.28524073  0.84218774     0.18900
C3373       C  0.86450761  0.03643348  0.87632891    -0.07000
C3374       C  0.86504893  0.08198381  0.87731355    -0.18100
C3375       C  0.90952149  0.12812507  0.87635479     0.10200
C3376       C  0.95493993  0.12890889  0.87457221    -0.06900
C3377       C  0.95418483  0.08323567  0.87341023    -0.18100
C3378       C  0.90954955  0.03703865  0.87429941     0.10300
S3379       S  0.90746271  0.18580893  0.87709556    -0.33100
S3380       S  0.91291984  0.98031378  0.87309562    -0.33100
H3381       H  0.87454405  0.95103546  0.87852611     0.28300
H3382       H  0.85495336  0.16361839  0.87783858     0.28300
H3383       H  0.83018350  0.08127670  0.87866096     0.18900
H3384       H  0.98896291  0.08352563  0.87213823     0.18900
C3385       C  0.44941249  0.63831220  0.87804040    -0.07000
C3386       C  0.44143680  0.61128334  0.88510635    -0.18100
C3387       C  0.40294293  0.56116864  0.88574426     0.10200
C3388       C  0.37134538  0.53739272  0.87920501    -0.06900
C3389       C  0.37855350  0.56476506  0.87221663    -0.18100
C3390       C  0.41629859  0.61506712  0.87162843     0.10300
S3391       S  0.39802670  0.52902859  0.89487705    -0.33100
S3392       S  0.41771677  0.64834235  0.86277716    -0.33100
H3393       H  0.43267913  0.69423243  0.86665878     0.28300
H3394       H  0.38272055  0.48199694  0.89137569     0.28300
H3395       H  0.46663359  0.62864521  0.89006737     0.18900
H3396       H  0.35326902  0.54733439  0.86726426     0.18900
C3397       C  0.15620675  0.11647697  0.87463619    -0.07000
C3398       C  0.13187805  0.08194473  0.88075317    -0.18100
C3399       C  0.12272800  0.03271601  0.88023683     0.10200
C3400       C  0.14057123  0.01790730  0.87363442    -0.06900
C3401       C  0.16348227  0.05177068  0.86737079    -0.18100
C3402       C  0.17088273  0.10082018  0.86775264     0.10300
S3403       S  0.08711868  0.99021329  0.88815465    -0.33100
S3404       S  0.20185200  0.14387080  0.85965979    -0.33100
H3405       H  0.20136767  0.10828023  0.85436573     0.28300
H3406       H  0.06724825  0.94596322  0.88361720     0.28300
H3407       H  0.11853612  0.09299724  0.88588973     0.18900
H3408       H  0.17756118  0.04050709  0.86236224     0.18900
C3409       C  0.15489336  0.61334731  0.88042582    -0.07000
C3410       C  0.14853522  0.58756102  0.88758357    -0.18100
C3411       C  0.15291340  0.54415691  0.88791804     0.10200
C3412       C  0.16460698  0.52645818  0.88095482    -0.06900
C3413       C  0.17238443  0.55341832  0.87388903    -0.18100
C3414       C  0.16868095  0.59681396  0.87358029     0.10300
S3415       S  0.14032030  0.51190844  0.89726008    -0.33100
S3416       S  0.18493348  0.63086621  0.86435862    -0.33100
H3417       H  0.21007996  0.67865273  0.86787826     0.28300
H3418       H  0.11468159  0.46337114  0.89397532     0.28300
H3419       H  0.13839170  0.60027873  0.89288733     0.18900
H3420       H  0.18278288  0.54123194  0.86855247     0.18900
C3421       C  0.27304172  0.02287471  0.74300061    -0.07000
C3422       C  0.22166759  0.98748055  0.74400683    -0.18100
C3423       C  0.20389810  0.95597648  0.75062997     0.10200
C3424       C  0.23765205  0.96060299  0.75668496    -0.06900
C3425       C  0.28899905  0.99601804  0.75573458    -0.18100
C3426       C  0.30712238  0.02705640  0.74900233     0.10300
S3427       S  0.13828829  0.90864762  0.75071607    -0.33100
S3428       S  0.37322994  0.07350606  0.74846127    -0.33100
H3429       H  0.38834686  0.05927392  0.75538279     0.28300
H3430       H  0.14693139  0.87093897  0.75375088     0.28300
H3431       H  0.19496944  0.98315450  0.73946088     0.18900
H3432       H  0.31492704  0.00016684  0.76040197     0.18900
C3433       C  0.32302873  0.14501837  0.65756751    -0.07000
C3434       C  0.35074696  0.12831191  0.66194047    -0.18100
C3435       C  0.35977431  0.13838415  0.67002000     0.10200
C3436       C  0.34237349  0.16772784  0.67391993    -0.06900
C3437       C  0.31529519  0.18510662  0.66951744    -0.18100
C3438       C  0.30565973  0.17441775  0.66144983     0.10300
S3439       S  0.38984282  0.10868058  0.67502204    -0.33100
S3440       S  0.27268551  0.20124511  0.65647827    -0.33100
H3441       H  0.30573533  0.21819252  0.64999566     0.28300
H3442       H  0.35231680  0.08651791  0.68083635     0.28300
H3443       H  0.36426623  0.10568196  0.65908502     0.18900
H3444       H  0.30119123  0.20712927  0.67240813     0.18900
C3445       C  0.41158116  0.34814474  0.57707908    -0.07000
C3446       C  0.41212346  0.30283014  0.57740656    -0.18100
C3447       C  0.39317261  0.27089026  0.58391213     0.10200
C3448       C  0.37520997  0.28537010  0.59049913    -0.06900
C3449       C  0.37429262  0.33064820  0.59021918    -0.18100
C3450       C  0.39249028  0.36231866  0.58359133     0.10300
S3451       S  0.39014442  0.21082205  0.58324086    -0.33100
S3452       S  0.39277329  0.42114624  0.58399176    -0.33100
H3453       H  0.43741012  0.44867728  0.57961943     0.28300
H3454       H  0.34508357  0.18420763  0.58755003     0.28300
H3455       H  0.42566083  0.29129224  0.57238934     0.18900
H3456       H  0.36096848  0.34221526  0.59529499     0.18900
C3457       C  0.53010282  0.34777603  0.70723721    -0.07000
C3458       C  0.55683432  0.36225349  0.71440729    -0.18100
C3459       C  0.59972046  0.40940980  0.71535993     0.10200
C3460       C  0.61626268  0.44430548  0.70907193    -0.06900
C3461       C  0.59074204  0.42921794  0.70177195    -0.18100
C3462       C  0.54770966  0.38161862  0.70080885     0.10300
S3463       S  0.63274164  0.42158747  0.72463140    -0.33100
S3464       S  0.51586870  0.36744310  0.69141040    -0.33100
H3465       H  0.46690658  0.34061932  0.69453280     0.28300
H3466       H  0.68102311  0.44679225  0.72121882     0.28300
H3467       H  0.54398973  0.33636133  0.71936562     0.18900
H3468       H  0.60354632  0.45528630  0.69684238     0.18900
C3469       C  0.01327348  0.86224268  0.71315731    -0.07000
C3470       C  0.04582155  0.86678460  0.71933261    -0.18100
C3471       C  0.09635515  0.90510839  0.71930716     0.10200
C3472       C  0.11459978  0.94023809  0.71304232    -0.06900
C3473       C  0.08158423  0.93692824  0.70704053    -0.18100
C3474       C  0.03102597  0.89854660  0.70706879     0.10300
S3475       S  0.13596394  0.90570652  0.72723713    -0.33100
S3476       S  0.98886915  0.89718187  0.69950061    -0.33100
H3477       H  0.02284218  0.94323296  0.69591763     0.28300
H3478       H  0.18169655  0.92959151  0.72306558     0.28300
H3479       H  0.03243112  0.83881578  0.72399731     0.18900
H3480       H  0.09544096  0.96486924  0.70237672     0.18900
C3481       C  0.74143203  0.70556676  0.74376999    -0.07000
C3482       C  0.69185002  0.69667829  0.74425138    -0.18100
C3483       C  0.67543655  0.71326131  0.75075729     0.10200
C3484       C  0.70891526  0.73858573  0.75707495    -0.06900
C3485       C  0.75828392  0.74693385  0.75659123    -0.18100
C3486       C  0.77453291  0.73025775  0.75013536     0.10300
S3487       S  0.61244022  0.70341790  0.75039184    -0.33100
S3488       S  0.83711867  0.73916974  0.75063122    -0.33100
H3489       H  0.82421663  0.69322863  0.74693242     0.28300
H3490       H  0.62481349  0.74975818  0.75389587     0.28300
H3491       H  0.66618718  0.67835720  0.73937684     0.18900
H3492       H  0.78425850  0.76534179  0.76142988     0.18900
C3493       C  0.04133190  0.85161852  0.62399948    -0.07000
C3494       C  0.05088589  0.88457216  0.61765041    -0.18100
C3495       C  0.09144603  0.93393328  0.61780487     0.10200
C3496       C  0.12416345  0.95076615  0.62439843    -0.06900
C3497       C  0.11395748  0.91837618  0.63085327    -0.18100
C3498       C  0.07316556  0.86896895  0.63070709     0.10300
S3499       S  0.09994047  0.97588583  0.60968130    -0.33100
S3500       S  0.06536960  0.82930066  0.63907577    -0.33100
H3501       H  0.04823196  0.78487751  0.63465400     0.28300
H3502       H  0.05689624  0.94240281  0.60537255     0.28300
H3503       H  0.02567621  0.87182178  0.61262327     0.18900
H3504       H  0.13917158  0.93089472  0.63588436     0.18900
C3505       C  0.53749151  0.36129254  0.62017170    -0.07000
C3506       C  0.55500300  0.39291626  0.61352746    -0.18100
C3507       C  0.60286851  0.43601385  0.61349311     0.10200
C3508       C  0.63462055  0.44656272  0.62012464    -0.06900
C3509       C  0.61732625  0.41418595  0.62667005    -0.18100
C3510       C  0.56949709  0.37172998  0.62673959     0.10300
S3511       S  0.61948464  0.47765656  0.60511031    -0.33100
S3512       S  0.55200241  0.33128156  0.63526853    -0.33100
H3513       H  0.53209288  0.28691263  0.63077762     0.28300
H3514       H  0.64657003  0.52240881  0.60946101     0.28300
H3515       H  0.53043657  0.38514362  0.60848101     0.18900
H3516       H  0.64157037  0.42174406  0.63175706     0.18900
C3517       C  0.83107740  0.64757622  0.65869059    -0.07000
C3518       C  0.84071374  0.68935089  0.66326624    -0.18100
C3519       C  0.84253196  0.68777893  0.67149808     0.10200
C3520       C  0.83768708  0.64452185  0.67535050    -0.06900
C3521       C  0.82794676  0.60255286  0.67077506    -0.18100
C3522       C  0.82482113  0.60366076  0.66251530     0.10300
S3523       S  0.84462296  0.73973470  0.67674070    -0.33100
S3524       S  0.81493339  0.54860278  0.65721005    -0.33100
H3525       H  0.84733806  0.57613521  0.65098194     0.28300
H3526       H  0.79871797  0.70849109  0.68058113     0.28300
H3527       H  0.84422906  0.72264353  0.66042768     0.18900
H3528       H  0.82352656  0.56897761  0.67363900     0.18900
C3529       C  0.91212719  0.59257715  0.59042991    -0.07000
C3530       C  0.96343634  0.60780112  0.58961504    -0.18100
C3531       C  0.98148959  0.59322808  0.58308023     0.10200
C3532       C  0.94763082  0.56252375  0.57711521    -0.06900
C3533       C  0.89641765  0.54748484  0.57797381    -0.18100
C3534       C  0.87869148  0.56313202  0.58436458     0.10300
S3535       S  0.04749958  0.61306551  0.58297067    -0.33100
S3536       S  0.81368146  0.54713854  0.58406994    -0.33100
H3537       H  0.82244850  0.59325271  0.58722922     0.28300
H3538       H  0.03991190  0.56628195  0.58035771     0.28300
H3539       H  0.98961580  0.63017226  0.59422492     0.18900
H3540       H  0.86987036  0.52456136  0.57345560     0.18900
C3541       C  0.85363689  0.97379901  0.71326373    -0.07000
C3542       C  0.85352643  0.94938268  0.70623032    -0.18100
C3543       C  0.84490120  0.90018288  0.70625923     0.10200
C3544       C  0.83404317  0.87331380  0.71346011    -0.06900
C3545       C  0.83620975  0.89812263  0.72052949    -0.18100
C3546       C  0.84647237  0.94798718  0.72053147     0.10300
S3547       S  0.85014446  0.87480310  0.69691998    -0.33100
S3548       S  0.84653738  0.97477496  0.72997811    -0.33100
H3549       H  0.89715355  0.01298664  0.72927498     0.28300
H3550       H  0.87209466  0.84780979  0.70006068     0.28300
H3551       H  0.86031162  0.96885511  0.70062230     0.18900
H3552       H  0.82896067  0.87818127  0.72610050     0.18900
C3553       C  0.82823964  0.36844222  0.70887380    -0.07000
C3554       C  0.83760718  0.39403534  0.70159717    -0.18100
C3555       C  0.83462764  0.43813991  0.70086237     0.10200
C3556       C  0.82143261  0.45686406  0.70752052    -0.06900
C3557       C  0.81030324  0.43006758  0.71467449    -0.18100
C3558       C  0.81262244  0.38600940  0.71538059     0.10300
S3559       S  0.85031387  0.46976985  0.69144052    -0.33100
S3560       S  0.79198011  0.35228488  0.72459836    -0.33100
H3561       H  0.76467280  0.30477933  0.72098481     0.28300
H3562       H  0.87510704  0.51868989  0.69459205     0.28300
H3563       H  0.84873770  0.38042259  0.69650727     0.18900
H3564       H  0.79886299  0.44331099  0.71977995     0.18900
C3565       C  0.13087160  0.14830926  0.71167727    -0.07000
C3566       C  0.13726826  0.19493723  0.70925397    -0.18100
C3567       C  0.09869743  0.20633639  0.71005978     0.10200
C3568       C  0.05157102  0.16984082  0.71316460    -0.06900
C3569       C  0.04558280  0.12353457  0.71573690    -0.18100
C3570       C  0.08432657  0.11225057  0.71497151     0.10300
S3571       S  0.11303341  0.26896975  0.70740144    -0.33100
S3572       S  0.07074706  0.05009443  0.71784918    -0.33100
H3573       H  0.09795379  0.04427336  0.71163806     0.28300
H3574       H  0.08909115  0.27440462  0.71411741     0.28300
H3575       H  0.17325873  0.22343586  0.70691468     0.18900
H3576       H  0.00959805  0.09482276  0.71803933     0.18900
C3577       C  0.53213126  0.13924604  0.70817090    -0.07000
C3578       C  0.57285533  0.18247064  0.70484552    -0.18100
C3579       C  0.62128561  0.18871656  0.70463809     0.10200
C3580       C  0.62909789  0.14989163  0.70749521    -0.06900
C3581       C  0.58774269  0.10580557  0.71051524    -0.18100
C3582       C  0.53961430  0.10003006  0.71086117     0.10300
S3583       S  0.67184162  0.24878889  0.70136723    -0.33100
S3584       S  0.48930456  0.04139571  0.71462984    -0.33100
H3585       H  0.45209602  0.03991524  0.70959478     0.28300
H3586       H  0.70506552  0.25365816  0.70748602     0.28300
H3587       H  0.56753537  0.21301312  0.70281659     0.18900
H3588       H  0.59299306  0.07546714  0.71266672     0.18900
C3589       C  0.96778958  0.24617004  0.74297217    -0.07000
C3590       C  0.01310470  0.24527394  0.74325198    -0.18100
C3591       C  0.04461888  0.26268666  0.74987091     0.10200
C3592       C  0.03028609  0.28042408  0.75653113    -0.06900
C3593       C  0.98530236  0.28196190  0.75622824    -0.18100
C3594       C  0.95371613  0.26455136  0.74959159     0.10300
S3595       S  0.10361488  0.26338544  0.74927325    -0.33100
S3596       S  0.89474025  0.26398166  0.75015607    -0.33100
H3597       H  0.86694893  0.21888264  0.74591659     0.28300
H3598       H  0.13066454  0.30644566  0.75399390     0.28300
H3599       H  0.02478407  0.23206081  0.73817271     0.18900
H3600       H  0.97356955  0.29481019  0.76134331     0.18900
C3601       C  0.51860675  0.14596776  0.61837242    -0.07000
C3602       C  0.51357907  0.10108616  0.62142483    -0.18100
C3603       C  0.55324165  0.09100328  0.62122168     0.10200
C3604       C  0.60034376  0.12706083  0.61805940    -0.06900
C3605       C  0.60438404  0.17053238  0.61452480    -0.18100
C3606       C  0.56468841  0.18087343  0.61477587     0.10300
S3607       S  0.54015084  0.03028426  0.62475959    -0.33100
S3608       S  0.57669947  0.24075673  0.61094695    -0.33100
H3609       H  0.55358438  0.25114817  0.61729230     0.28300
H3610       H  0.56649384  0.02297059  0.61856910     0.28300
H3611       H  0.47800689  0.07311504  0.62395690     0.18900
H3612       H  0.63956541  0.19796441  0.61186001     0.18900
C3613       C  0.02452332  0.15205905  0.62792671    -0.07000
C3614       C  0.02674178  0.10755863  0.62837088    -0.18100
C3615       C  0.07160114  0.10747536  0.62676009     0.10200
C3616       C  0.11585923  0.15311901  0.62486375    -0.06900
C3617       C  0.11397510  0.19772099  0.62462889    -0.18100
C3618       C  0.06921036  0.19778532  0.62619227     0.10300
S3619       S  0.06894265  0.04736412  0.62664984    -0.33100
S3620       S  0.07162131  0.25767658  0.62584680    -0.33100
H3621       H  0.03270353  0.24465683  0.63136790     0.28300
H3622       H  0.10666150  0.06017098  0.62091783     0.28300
H3623       H  0.99256692  0.07210078  0.62942567     0.18900
H3624       H  0.14789328  0.23297448  0.62334973     0.18900
C3625       C  0.82042772  0.33396422  0.61868774    -0.07000
C3626       C  0.86938379  0.37511745  0.61937754    -0.18100
C3627       C  0.87865923  0.42456896  0.61899185     0.10200
C3628       C  0.83797059  0.43343779  0.61802057    -0.06900
C3629       C  0.78922931  0.39216665  0.61705739    -0.18100
C3630       C  0.77994770  0.34276516  0.61752365     0.10300
S3631       S  0.94320928  0.47444561  0.61962819    -0.33100
S3632       S  0.71524155  0.29315980  0.61729741    -0.33100
H3633       H  0.72039175  0.26137745  0.62274291     0.28300
H3634       H  0.93757213  0.50640743  0.61427791     0.28300
H3635       H  0.90069724  0.36862074  0.62024439     0.18900
H3636       H  0.75754701  0.39832235  0.61642741     0.18900
C3637       C  0.84123222  0.84771915  0.62632701    -0.07000
C3638       C  0.81722017  0.85794920  0.63252147    -0.18100
C3639       C  0.81111902  0.90056291  0.63231754     0.10200
C3640       C  0.82903308  0.93350439  0.62572972    -0.06900
C3641       C  0.85465174  0.92402723  0.61969753    -0.18100
C3642       C  0.86164305  0.88228624  0.61999207     0.10300
S3643       S  0.77678477  0.91001851  0.64017690    -0.33100
S3644       S  0.89721270  0.87517646  0.61209564    -0.33100
H3645       H  0.91619813  0.84996909  0.61664545     0.28300
H3646       H  0.77316849  0.87171074  0.64517643     0.28300
H3647       H  0.80110847  0.83120286  0.63732521     0.18900
H3648       H  0.86988414  0.94972446  0.61473782     0.18900
C3649       C  0.82331952  0.14804461  0.65904994    -0.07000
C3650       C  0.79512099  0.10061855  0.66266608    -0.18100
C3651       C  0.78040129  0.09582450  0.67064091     0.10200
C3652       C  0.79505195  0.13935222  0.67528068    -0.06900
C3653       C  0.82221434  0.18665621  0.67160611    -0.18100
C3654       C  0.83659154  0.19153179  0.66362705     0.10300
S3655       S  0.74165661  0.03312792  0.67447575    -0.33100
S3656       S  0.87586565  0.25398708  0.65966397    -0.33100
H3657       H  0.86192199  0.27895524  0.66522105     0.28300
H3658       H  0.71482441  0.04631792  0.67979036     0.28300
H3659       H  0.78311130  0.06685153  0.65919041     0.18900
H3660       H  0.83520772  0.22037264  0.67512342     0.18900
C3661       C  0.69640057  0.05397487  0.59023937    -0.07000
C3662       C  0.70651621  0.09137479  0.58456867    -0.18100
C3663       C  0.68105011  0.07997958  0.57732463     0.10200
C3664       C  0.64286790  0.02997407  0.57570565    -0.06900
C3665       C  0.63357876  0.99234999  0.58129156    -0.18100
C3666       C  0.65982754  0.00369320  0.58847531     0.10300
S3667       S  0.70051587  0.13084304  0.57033675    -0.33100
S3668       S  0.64137668  0.95326338  0.59545835    -0.33100
H3669       H  0.68803028  0.95503110  0.59500842     0.28300
H3670       H  0.69586483  0.10136693  0.56367277     0.28300
H3671       H  0.73503791  0.12998470  0.58575888     0.18900
H3672       H  0.60436630  0.95391170  0.58017952     0.18900
loop_ 
_geom_bond_atom_site_label_1 
_geom_bond_atom_site_label_2 
_geom_bond_distance 
_geom_bond_site_symmetry_2 
_ccdc_geom_bond_type 
Zr1           O2   2.439       .  S
Zr1           O3   2.424       .  S
Zr1           O4   2.432       .  S
Zr1           O7   2.440       .  S
Zr1           O9   2.383       .  S
Zr1          O10   2.383       .  S
Zr1          O11   2.403       .  S
Zr1          O12   2.393       .  S
O2           H58   0.990       .  S
O2           H66   0.991       .  S
O3           C23   1.283       .  A
O4           C25   1.285       .  A
O5          Zr15   2.417       .  S
O5           C24   1.282       .  A
O6          Zr14   2.443       .  S
O6           C25   1.287       .  A
O7           C24   1.287       .  A
O8          Zr16   2.447       .  S
O8           C23   1.287       .  A
O9          Zr14   2.395       .  S
O9          Zr16   2.363       .  S
O10         Zr15   2.387       .  S
O10         Zr16   2.378       .  S
O10          H45   0.969       .  S
O11         Zr14   2.399       .  S
O11         Zr31   2.388       .  S
O11          H48   0.965       .  S
O12         Zr15   2.388       .  S
O12         Zr31   2.377       .  S
Zr13         O38   2.443       .  S
Zr13         O32   2.478       .  S
Zr13         O40   2.477       .  S
Zr13         O28   2.435       .  S
Zr13         O19   2.397       .  S
Zr13         O20   2.427       .  S
Zr13         O21   2.381       .  S
Zr13         O22   2.392       .  S
Zr14         O33   2.435       .  S
Zr14         O26   2.434   1_545  S
Zr14         O27   2.450   1_545  S
Zr14         O20   2.399       .  S
Zr14         O21   2.387       .  S
Zr15         O17   2.436       .  S
Zr15         O39   2.438       .  S
Zr15         O41   2.426       .  S
Zr15         O19   2.383       .  S
Zr15         O22   2.396       .  S
Zr16         O42   2.435       .  S
Zr16         O43   2.437       .  S
Zr16         O18   2.437   1_545  S
Zr16         O19   2.390       .  S
Zr16         O20   2.418       .  S
O17          H54   0.990       .  S
O18          H49   0.990       .  S
O18          H63   0.990   1_565  S
O20          H46   0.966       .  S
O21         Zr31   2.375       .  S
O22         Zr31   2.400       .  S
O22          H47   0.964       .  S
C23        C3604   1.493       .  S
C24        C3625   1.473       .  S
C25        C3661   1.488       .  S
O26          H62   0.989       .  S
O27          C29   1.288       .  A
O28          C29   1.283   1_545  A
C29        C3640   1.490       .  S
O30         Zr31   2.440       .  S
O30          H59   0.991       .  S
Zr31         O34   2.439       .  S
Zr31         O35   2.437       .  S
Zr31         O36   2.382       .  S
O32          C37   1.292       .  A
O33          H50   0.990       .  S
O33          H65   0.990   1_545  S
O34          H51   0.991       .  S
O35          H55   0.990       .  S
O35          H64   0.989       .  S
O36          C37   1.274       .  A
C37        C3613   1.481   1_655  S
O38          H57   0.990       .  S
O38          H61   0.991       .  S
O39          H53   0.990       .  S
O39          H60   0.990       .  S
O40          C44   1.291       .  A
O41          C44   1.282       .  A
O42          H52   0.990       .  S
O43          H56   0.989   1_545  S
C44        C3649   1.494       .  S
Zr67         O68   2.443       .  S
Zr67         O69   2.459       .  S
Zr67         O70   2.460       .  S
Zr67         O73   2.420       .  S
Zr67         O75   2.379       .  S
Zr67         O76   2.388       .  S
Zr67         O77   2.407       .  S
Zr67         O78   2.422       .  S
O68         H124   0.991       .  S
O68         H132   0.990       .  S
O69          C89   1.288       .  A
O70          C91   1.289       .  A
O71         Zr81   2.445       .  S
O71          C90   1.288       .  A
O72         Zr80   2.437       .  S
O72          C91   1.285       .  A
O73          C90   1.281       .  A
O74         Zr82   2.393       .  S
O74          C89   1.276       .  A
O75         Zr80   2.398       .  S
O75         Zr82   2.393       .  S
O76         Zr81   2.397       .  S
O76         Zr82   2.373       .  S
O76         H111   0.967       .  S
O77         Zr80   2.398       .  S
O77         Zr97   2.375       .  S
O77         H114   0.963       .  S
O78         Zr81   2.397       .  S
O78         Zr97   2.406       .  S
Zr79        O104   2.438       .  S
Zr79         O98   2.421       .  S
Zr79        O106   2.427       .  S
Zr79         O94   2.432       .  S
Zr79         O85   2.396       .  S
Zr79         O86   2.399       .  S
Zr79         O87   2.376       .  S
Zr79         O88   2.384       .  S
Zr80         O99   2.436       .  S
Zr80         O92   2.436       .  S
Zr80         O93   2.435       .  S
Zr80         O86   2.397       .  S
Zr80         O87   2.386       .  S
Zr81         O83   2.435       .  S
Zr81        O105   2.435       .  S
Zr81        O107   2.450       .  S
Zr81         O85   2.393       .  S
Zr81         O88   2.389       .  S
Zr82        O108   2.437       .  S
Zr82        O109   2.434       .  S
Zr82         O84   2.437       .  S
Zr82         O85   2.392       .  S
Zr82         O86   2.383       .  S
O83         H120   0.991       .  S
O84         H115   0.991       .  S
O84         H129   0.990       .  S
O86         H112   0.964       .  S
O87         Zr97   2.373       .  S
O88         Zr97   2.359       .  S
O88         H113   0.963       .  S
C89        C3580   1.482       .  S
C90        C3553   1.483       .  S
C91        C3652   1.492       .  S
O92         H128   0.990       .  S
O93          C95   1.287       .  A
O94          C95   1.285       .  A
C95        C3541   1.486   1_545  S
O96         Zr97   2.438       .  S
O96         H125   0.990   1_655  S
Zr97        O100   2.437       .  S
Zr97        O101   2.438   1_655  S
Zr97        O102   2.434   1_655  S
O98         C103   1.283   1_655  A
O99         H116   0.990       .  S
O99         H131   0.990       .  S
O100        H117   0.990       .  S
O101        H121   0.989       .  S
O101        H130   0.989   1_455  S
O102        C103   1.284       .  A
C103       C3568   1.485       .  S
O104        H123   0.990       .  S
O104        H127   0.990       .  S
O105        H119   0.990       .  S
O105        H126   0.989       .  S
O106        C110   1.285       .  A
O107        C110   1.289       .  A
O108        H118   0.990       .  S
O109        H122   0.989       .  S
C110       C3589   1.483       .  S
Zr133       O134   2.436       .  S
Zr133       O135   2.421       .  S
Zr133       O136   2.439       .  S
Zr133       O139   2.436       .  S
Zr133       O141   2.379       .  S
Zr133       O142   2.386       .  S
Zr133       O143   2.400       .  S
Zr133       O144   2.400       .  S
O134        H190   0.991       .  S
O134        H198   0.988       .  S
O135        C155   1.282       .  A
O136        C157   1.287       .  A
O137       Zr147   2.418       .  S
O137        C156   1.281       .  A
O138       Zr146   2.438       .  S
O138        C157   1.286       .  A
O139        C156   1.284       .  A
O140       Zr148   2.434       .  S
O140        C155   1.284       .  A
O141       Zr146   2.389       .  S
O141       Zr148   2.363       .  S
O142       Zr147   2.391       .  S
O142       Zr148   2.379       .  S
O142        H177   0.966       .  S
O143       Zr146   2.400       .  S
O143       Zr163   2.403       .  S
O143        H180   0.967       .  S
O144       Zr147   2.391       .  S
O144       Zr163   2.384       .  S
Zr145       O170   2.441       .  S
Zr145       O164   2.470       .  S
Zr145       O172   2.453       .  S
Zr145       O160   2.431       .  S
Zr145       O151   2.396       .  S
Zr145       O152   2.425       .  S
Zr145       O153   2.376       .  S
Zr145       O154   2.385       .  S
Zr146       O165   2.436       .  S
Zr146       O158   2.435   1_655  S
Zr146       O159   2.432       .  S
Zr146       O152   2.400       .  S
Zr146       O153   2.391       .  S
Zr147       O149   2.436       .  S
Zr147       O171   2.442       .  S
Zr147       O173   2.427       .  S
Zr147       O151   2.373       .  S
Zr147       O154   2.397       .  S
Zr148       O174   2.436       .  S
Zr148       O175   2.435       .  S
Zr148       O150   2.435       .  S
Zr148       O151   2.380       .  S
Zr148       O152   2.414       .  S
O149        H186   0.989       .  S
O150        H181   0.990       .  S
O150        H195   0.990       .  S
O152        H178   0.965       .  S
O153       Zr163   2.379       .  S
O154       Zr163   2.393       .  S
O154        H179   0.968       .  S
C155       C3628   1.480       .  S
C156       C3508   1.472       .  S
C157       C3529   1.489       .  S
O158        H194   0.990       .  S
O159        C161   1.285       .  A
O160        C161   1.281       .  A
C161       C3493   1.480   1_655  S
O162       Zr163   2.439       .  S
O162        H191   0.990       .  S
Zr163       O166   2.435       .  S
Zr163       O167   2.440       .  S
Zr163       O168   2.410       .  S
O164        C169   1.289       .  A
O165        H182   0.991       .  S
O165        H197   0.989       .  S
O166        H183   0.989       .  S
O167        H187   0.989       .  S
O167        H196   0.991       .  S
O168        C169   1.279       .  A
C169       C3637   1.484       .  S
O170        H189   0.990       .  S
O170        H193   0.991       .  S
O171        H185   0.990       .  S
O171        H192   0.991       .  S
O172        C176   1.288       .  A
O173        C176   1.283       .  A
O174        H184   0.990       .  S
O175        H188   0.990       .  S
C176       C3517   1.478       .  S
Zr199       O200   2.444       .  S
Zr199       O201   2.471       .  S
Zr199       O202   2.458       .  S
Zr199       O205   2.412       .  S
Zr199       O207   2.383       .  S
Zr199       O208   2.387       .  S
Zr199       O209   2.410       .  S
Zr199       O210   2.422       .  S
O200        H256   0.990       .  S
O200        H264   0.991       .  S
O201        C221   1.290       .  A
O202        C223   1.287       .  A
O203       Zr213   2.461       .  S
O203        C222   1.291       .  A
O204       Zr212   2.432       .  S
O204        C223   1.283       .  A
O205        C222   1.280       .  A
O206       Zr214   2.392       .  S
O206        C221   1.277       .  A
O207       Zr212   2.394       .  S
O207       Zr214   2.391       .  S
O208       Zr213   2.392       .  S
O208       Zr214   2.376       .  S
O208        H243   0.965       .  S
O209       Zr212   2.406       .  S
O209       Zr229   2.376       .  S
O209        H246   0.961       .  S
O210       Zr213   2.394       .  S
O210       Zr229   2.404       .  S
Zr211       O236   2.440       .  S
Zr211       O230   2.418       .  S
Zr211       O238   2.442       .  S
Zr211       O226   2.444       .  S
Zr211       O217   2.400       .  S
Zr211       O218   2.398       .  S
Zr211       O219   2.383       .  S
Zr211       O220   2.390       .  S
Zr212       O231   2.438       .  S
Zr212       O224   2.434       .  S
Zr212       O225   2.429       .  S
Zr212       O218   2.392       .  S
Zr212       O219   2.389       .  S
Zr213       O215   2.435       .  S
Zr213       O237   2.435       .  S
Zr213       O239   2.456       .  S
Zr213       O217   2.400       .  S
Zr213       O220   2.394       .  S
Zr214       O240   2.437       .  S
Zr214       O241   2.437       .  S
Zr214       O216   2.438       .  S
Zr214       O217   2.393       .  S
Zr214       O218   2.378       .  S
O215        H252   0.990       .  S
O216        H247   0.989       .  S
O216        H261   0.991       .  S
O218        H244   0.966       .  S
O219       Zr229   2.373       .  S
O220       Zr229   2.353       .  S
O220        H245   0.963       .  S
C221       C3556   1.481       .  S
C222       C3460   1.485       .  S
C223       C3520   1.482       .  S
O224        H260   0.990       .  S
O225        C227   1.283       .  A
O226        C227   1.286       .  A
C227       C3469   1.478   1_655  S
O228       Zr229   2.438       .  S
O228        H257   0.990       .  S
Zr229       O232   2.436       .  S
Zr229       O233   2.438       .  S
Zr229       O234   2.433       .  S
O230        C235   1.282       .  A
O231        H248   0.990       .  S
O231        H263   0.989       .  S
O232        H249   0.990       .  S
O233        H253   0.991       .  S
O233        H262   0.990       .  S
O234        C235   1.284       .  A
C235       C3544   1.477       .  S
O236        H255   0.990       .  S
O236        H259   0.990       .  S
O237        H251   0.990       .  S
O237        H258   0.989       .  S
O238        C242   1.289       .  A
O239        C242   1.291       .  A
O240        H250   0.990       .  S
O241        H254   0.990       .  S
C242       C3481   1.488       .  S
Zr265       O266   2.439       .  S
Zr265       O267   2.422       .  S
Zr265       O268   2.428       .  S
Zr265       O271   2.437       .  S
Zr265       O273   2.389       .  S
Zr265       O274   2.387       .  S
Zr265       O275   2.405       .  S
Zr265       O276   2.396       .  S
O266        H322   0.991       .  S
O266        H330   0.989       .  S
O267        C287   1.280       .  A
O268        C289   1.284       .  A
O269       Zr279   2.435       .  S
O269        C288   1.285       .  A
O270       Zr278   2.432       .  S
O270        C289   1.284       .  A
O271        C288   1.285       .  A
O272       Zr280   2.446       .  S
O272        C287   1.286       .  A
O273       Zr278   2.399       .  S
O273       Zr280   2.362       .  S
O274       Zr279   2.385       .  S
O274       Zr280   2.384       .  S
O274        H309   0.965       .  S
O275       Zr278   2.406       .  S
O275       Zr295   2.393       .  S
O275        H312   0.966       .  S
O276       Zr279   2.387       .  S
O276       Zr295   2.384       .  S
Zr277       O302   2.447       .  S
Zr277       O296   2.470       .  S
Zr277       O304   2.457       .  S
Zr277       O292   2.423       .  S
Zr277       O284   2.421       .  S
Zr277       O285   2.383       .  S
Zr277       O286   2.380       .  S
Zr277       O283   2.296       .  S
Zr278       O297   2.435       .  S
Zr278       O290   2.436       .  S
Zr278       O291   2.453       .  S
Zr278       O284   2.393       .  S
Zr278       O285   2.392       .  S
Zr279       O281   2.442       .  S
Zr279       O303   2.445       .  S
Zr279       O305   2.423       .  S
Zr279       O286   2.391       .  S
Zr279       O283   2.285       .  S
Zr280       O306   2.434       .  S
Zr280       O307   2.439       .  S
Zr280       O282   2.448       .  S
Zr280       O284   2.412       .  S
Zr280       O283   2.304       .  S
O281        H318   0.991       .  S
O282        H313   0.990       .  S
O282        H327   0.990       .  S
O284        H310   0.966       .  S
O285       Zr295   2.384       .  S
O286       Zr295   2.399       .  S
O286        H311   0.968       .  S
C287       C3505   1.472       .  S
C288       C3601   1.488       .  S
C289       C3448   1.472       .  S
O290        H326   0.990       .  S
O291        C293   1.288       .  A
O292        C293   1.281       .  A
C293       C3616   1.479       .  S
O294       Zr295   2.440       .  S
O294        H323   0.990       .  S
Zr295       O298   2.438       .  S
Zr295       O299   2.439   1_545  S
Zr295       O300   2.393       .  S
O296        C301   1.289   1_545  A
O297        H314   0.990       .  S
O297        H329   0.990       .  S
O298        H315   0.991       .  S
O299        H319   0.990       .  S
O299        H328   0.990   1_565  S
O300        C301   1.276   1_545  A
C301       C3496   1.480       .  S
O302        H321   0.993       .  S
O302        H325   0.987       .  S
O303        H317   0.991       .  S
O303        H324   0.990       .  S
O304        C308   1.286       .  A
O305        C308   1.282       .  A
O306        H316   0.991       .  S
O307        H320   0.990       .  S
C308       C3433   1.486       .  S
Zr331       O332   2.443       .  S
Zr331       O333   2.480       .  S
Zr331       O334   2.471       .  S
Zr331       O337   2.410       .  S
Zr331       O339   2.375       .  S
Zr331       O340   2.388       .  S
Zr331       O341   2.417       .  S
Zr331       O342   2.431       .  S
O332        H388   0.992       .  S
O332        H396   0.988       .  S
O333        C353   1.290       .  A
O334        C355   1.289       .  A
O335       Zr345   2.444       .  S
O335        C354   1.287       .  A
O336       Zr344   2.428       .  S
O336        C355   1.284       .  A
O337        C354   1.279       .  A
O338       Zr346   2.380       .  S
O338        C353   1.273       .  A
O339       Zr344   2.398       .  S
O339       Zr346   2.394       .  S
O340       Zr345   2.393       .  S
O340       Zr346   2.375       .  S
O340        H375   0.968       .  S
O341       Zr344   2.400       .  S
O341       Zr361   2.377       .  S
O341        H378   0.961       .  S
O342       Zr345   2.396       .  S
O342       Zr361   2.412       .  S
Zr343       O368   2.441       .  S
Zr343       O362   2.417       .  S
Zr343       O370   2.430       .  S
Zr343       O358   2.442       .  S
Zr343       O349   2.399       .  S
Zr343       O350   2.397       .  S
Zr343       O351   2.379       .  S
Zr343       O352   2.388       .  S
Zr344       O363   2.437       .  S
Zr344       O356   2.434       .  S
Zr344       O357   2.427       .  S
Zr344       O350   2.399       .  S
Zr344       O351   2.390       .  S
Zr345       O347   2.434       .  S
Zr345       O369   2.435       .  S
Zr345       O371   2.457       .  S
Zr345       O349   2.395       .  S
Zr345       O352   2.387       .  S
Zr346       O372   2.438       .  S
Zr346       O373   2.436       .  S
Zr346       O348   2.438       .  S
Zr346       O349   2.393       .  S
Zr346       O350   2.369       .  S
O347        H384   0.990       .  S
O348        H379   0.990       .  S
O348        H393   0.991       .  S
O350        H376   0.963       .  S
O351       Zr361   2.374       .  S
O352       Zr361   2.354       .  S
O352        H377   0.963       .  S
C353       C3457   1.480       .  S
C354       C3577   1.476       .  S
C355       C3436   1.486       .  S
O356        H392   0.989       .  S
O357        C359   1.285       .  A
O358        C359   1.287       .  A
C359       C3565   1.479       .  S
O360       Zr361   2.441       .  S
O360        H389   0.991   1_545  S
Zr361       O364   2.438       .  S
Zr361       O365   2.442   1_545  S
Zr361       O366   2.447   1_545  S
O362        C367   1.281   1_545  A
O363        H380   0.990       .  S
O363        H395   0.990       .  S
O364        H381   0.989       .  S
O365        H385   0.990       .  S
O365        H394   0.990       .  S
O366        C367   1.286       .  A
C367       C3472   1.472       .  S
O368        H387   0.991       .  S
O368        H391   0.990       .  S
O369        H383   0.990       .  S
O369        H390   0.990       .  S
O370        C374   1.286       .  A
O371        C374   1.290       .  A
O372        H382   0.991       .  S
O373        H386   0.990       .  S
C374       C3421   1.496       .  S
Zr397       O398   2.438       .  S
Zr397       O399   2.429       .  S
Zr397       O400   2.437       .  S
Zr397       O403   2.447       .  S
Zr397       O405   2.384       .  S
Zr397       O406   2.388       .  S
Zr397       O407   2.402       .  S
Zr397       O408   2.403       .  S
O398        H454   0.990       .  S
O398        H462   0.990       .  S
O399        C419   1.283       .  A
O400        C421   1.288       .  A
O401       Zr411   2.423       .  S
O401        C420   1.283       .  A
O402       Zr410   2.448       .  S
O402        C421   1.288       .  A
O403        C420   1.286       .  A
O404       Zr412   2.430       .  S
O404        C419   1.284       .  A
O405       Zr410   2.394       .  S
O405       Zr412   2.365       .  S
O406       Zr411   2.392       .  S
O406       Zr412   2.384       .  S
O406        H441   0.966       .  S
O407       Zr410   2.397       .  S
O407       Zr427   2.396       .  S
O407        H444   0.967       .  S
O408       Zr411   2.399       .  S
O408       Zr427   2.387       .  S
Zr409       O434   2.444       .  S
Zr409       O428   2.461       .  S
Zr409       O436   2.474       .  S
Zr409       O424   2.413       .  S
Zr409       O415   2.378       .  S
Zr409       O416   2.427       .  S
Zr409       O417   2.384       .  S
Zr409       O418   2.388       .  S
Zr410       O429   2.433       .  S
Zr410       O422   2.436       .  S
Zr410       O423   2.443       .  S
Zr410       O416   2.399       .  S
Zr410       O417   2.390       .  S
Zr411       O413   2.436       .  S
Zr411       O435   2.439       .  S
Zr411       O437   2.449       .  S
Zr411       O415   2.371       .  S
Zr411       O418   2.396       .  S
Zr412       O438   2.435       .  S
Zr412       O439   2.436       .  S
Zr412       O414   2.437       .  S
Zr412       O415   2.375       .  S
Zr412       O416   2.411       .  S
O413        H450   0.990       .  S
O414        H445   0.990       .  S
O414        H459   0.990       .  S
O416        H442   0.966       .  S
O417       Zr427   2.379       .  S
O418       Zr427   2.399       .  S
O418        H443   0.966       .  S
C419       C3388   1.472       .  S
C420       C3412   1.482       .  S
C421       C3349   1.496       .  S
O422        H458   0.990       .  S
O423        C425   1.287       .  A
O424        C425   1.279       .  A
C425       C3397   1.476       .  S
O426       Zr427   2.437       .  S
O426        H455   0.989       .  S
Zr427       O430   2.437       .  S
Zr427       O431   2.437       .  S
Zr427       O432   2.398       .  S
O428        C433   1.287       .  A
O429        H446   0.990       .  S
O429        H461   0.990       .  S
O430        H447   0.990       .  S
O431        H451   0.990   1_455  S
O431        H460   0.989   1_455  S
O432        C433   1.277       .  A
C433       C3376   1.480   1_455  S
O434        H453   0.990       .  S
O434        H457   0.991       .  S
O435        H449   0.990       .  S
O435        H456   0.990       .  S
O436        C440   1.290       .  A
O437        C440   1.287       .  A
O438        H448   0.990       .  S
O439        H452   0.990       .  S
C440       C3364   1.498       .  S
Zr463       O464   2.441       .  S
Zr463       O465   2.472       .  S
Zr463       O466   2.464       .  S
Zr463       O469   2.418       .  S
Zr463       O471   2.380       .  S
Zr463       O472   2.386       .  S
Zr463       O473   2.411       .  S
Zr463       O474   2.426       .  S
O464        H520   0.990       .  S
O464        H528   0.990       .  S
O465        C485   1.289       .  A
O466        C487   1.289       .  A
O467       Zr477   2.449       .  S
O467        C486   1.288       .  A
O468       Zr476   2.449       .  S
O468        C487   1.286       .  A
O469        C486   1.281       .  A
O470       Zr478   2.406       .  S
O470        C485   1.278       .  A
O471       Zr476   2.398       .  S
O471       Zr478   2.393       .  S
O472       Zr477   2.391       .  S
O472       Zr478   2.377       .  S
O472        H507   0.966       .  S
O473       Zr476   2.400       .  S
O473       Zr493   2.377       .  S
O473        H510   0.962       .  S
O474       Zr477   2.397       .  S
O474       Zr493   2.412       .  S
Zr475       O500   2.437       .  S
Zr475       O494   2.425       .  S
Zr475       O502   2.442       .  S
Zr475       O490   2.428       .  S
Zr475       O481   2.401       .  S
Zr475       O482   2.403       .  S
Zr475       O483   2.381       .  S
Zr475       O484   2.384       .  S
Zr476       O495   2.438       .  S
Zr476       O488   2.435       .  S
Zr476       O489   2.424       .  S
Zr476       O482   2.401       .  S
Zr476       O483   2.395       .  S
Zr477       O479   2.436       .  S
Zr477       O501   2.436       .  S
Zr477       O503   2.444       .  S
Zr477       O481   2.399       .  S
Zr477       O484   2.395       .  S
Zr478       O504   2.437       .  S
Zr478       O505   2.437       .  S
Zr478       O480   2.438       .  S
Zr478       O481   2.401       .  S
Zr478       O482   2.380       .  S
O479        H516   0.991       .  S
O480        H511   0.990       .  S
O480        H525   0.991       .  S
O482        H508   0.967       .  S
O483       Zr493   2.370       .  S
O484       Zr493   2.361       .  S
O484        H509   0.967       .  S
C485       C3325   1.480       .  S
C486       C3316   1.481       .  S
C487       C3361   1.497       .  S
O488        H524   0.990       .  S
O489        C491   1.284       .  A
O490        C491   1.285       .  A
C491       C3301   1.475       .  S
O492       Zr493   2.439       .  S
O492        H521   0.990   1_455  S
Zr493       O496   2.439       .  S
Zr493       O497   2.440   1_455  S
Zr493       O498   2.441   1_455  S
O494        C499   1.282   1_455  A
O495        H512   0.991       .  S
O495        H527   0.990       .  S
O496        H513   0.989   1_455  S
O497        H517   0.990       .  S
O497        H526   0.990       .  S
O498        C499   1.286       .  A
C499       C3340   1.481       .  S
O500        H519   0.990       .  S
O500        H523   0.990       .  S
O501        H515   0.990       .  S
O501        H522   0.990       .  S
O502        C506   1.286       .  A
O503        C506   1.287       .  A
O504        H514   0.989       .  S
O505        H518   0.990       .  S
C506       C3592   1.482       .  S
Zr529       O530   2.436       .  S
Zr529       O531   2.423       .  S
Zr529       O532   2.440       .  S
Zr529       O535   2.426       .  S
Zr529       O537   2.378       .  S
Zr529       O538   2.382       .  S
Zr529       O539   2.403       .  S
Zr529       O540   2.394       .  S
O530        H586   0.990       .  S
O530        H594   0.989       .  S
O531        C551   1.283       .  A
O532        C553   1.286       .  A
O533       Zr543   2.430       .  S
O533        C552   1.284       .  A
O534       Zr542   2.432       .  S
O534        C553   1.285       .  A
O535        C552   1.284       .  A
O536       Zr544   2.434       .  S
O536        C551   1.284       .  A
O537       Zr542   2.390       .  S
O537       Zr544   2.365       .  S
O538       Zr543   2.388       .  S
O538       Zr544   2.380       .  S
O538        H573   0.965       .  S
O539       Zr542   2.402       .  S
O539       Zr559   2.401       .  S
O539        H576   0.966       .  S
O540       Zr543   2.386       .  S
O540       Zr559   2.381       .  S
Zr541       O566   2.440       .  S
Zr541       O560   2.460       .  S
Zr541       O568   2.458       .  S
Zr541       O556   2.425       .  S
Zr541       O547   2.387       .  S
Zr541       O548   2.422       .  S
Zr541       O549   2.380       .  S
Zr541       O550   2.384       .  S
Zr542       O561   2.435       .  S
Zr542       O554   2.434       .  S
Zr542       O555   2.436       .  S
Zr542       O548   2.400       .  S
Zr542       O549   2.389       .  S
Zr543       O545   2.435       .  S
Zr543       O567   2.436       .  S
Zr543       O569   2.421       .  S
Zr543       O547   2.377       .  S
Zr543       O550   2.399       .  S
Zr544       O570   2.436       .  S
Zr544       O571   2.435       .  S
Zr544       O546   2.437       .  S
Zr544       O547   2.382       .  S
Zr544       O548   2.411       .  S
O545        H582   0.989       .  S
O546        H577   0.990       .  S
O546        H591   0.990       .  S
O548        H574   0.966       .  S
O549       Zr559   2.379       .  S
O550       Zr559   2.396       .  S
O550        H575   0.964       .  S
C551       C3268   1.482       .  S
C552       C3385   1.476       .  S
C553       C3256   1.486       .  S
O554        H590   0.989       .  S
O555        C557   1.284       .  A
O556        C557   1.280       .  A
C557       C3373   1.473   1_565  S
O558       Zr559   2.439       .  S
O558        H587   0.991       .  S
Zr559       O562   2.437       .  S
Zr559       O563   2.440       .  S
Zr559       O564   2.392       .  S
O560        C565   1.287       .  A
O561        H578   0.990       .  S
O561        H593   0.991       .  S
O562        H579   0.990       .  S
O563        H583   0.990       .  S
O563        H592   0.990       .  S
O564        C565   1.276       .  A
C565       C3277   1.477       .  S
O566        H585   0.991       .  S
O566        H589   0.990       .  S
O567        H581   0.989       .  S
O567        H588   0.990       .  S
O568        C572   1.289       .  A
O569        C572   1.283       .  A
O570        H580   0.991       .  S
O571        H584   0.990       .  S
C572       C3289   1.485       .  S
Zr595       O596   2.442       .  S
Zr595       O597   2.462       .  S
Zr595       O598   2.476       .  S
Zr595       O601   2.434       .  S
Zr595       O603   2.384       .  S
Zr595       O604   2.395       .  S
Zr595       O605   2.408       .  S
Zr595       O606   2.419       .  S
O596        H652   0.990       .  S
O596        H660   0.991       .  S
O597        C617   1.288       .  A
O598        C619   1.291       .  A
O599       Zr609   2.456       .  S
O599        C618   1.289       .  A
O600       Zr608   2.415       .  S
O600        C619   1.281       .  A
O601        C618   1.283       .  A
O602       Zr610   2.386       .  S
O602        C617   1.276       .  A
O603       Zr608   2.400       .  S
O603       Zr610   2.392       .  S
O604       Zr609   2.397       .  S
O604       Zr610   2.375       .  S
O604        H639   0.967       .  S
O605       Zr608   2.399       .  S
O605       Zr625   2.372       .  S
O605        H642   0.961       .  S
O606       Zr609   2.398       .  S
O606       Zr625   2.402       .  S
Zr607       O632   2.442       .  S
Zr607       O626   2.415       .  S
Zr607       O634   2.424       .  S
Zr607       O622   2.445       .  S
Zr607       O613   2.401       .  S
Zr607       O614   2.393       .  S
Zr607       O615   2.376       .  S
Zr607       O616   2.388       .  S
Zr608       O627   2.435       .  S
Zr608       O620   2.436       .  S
Zr608       O621   2.421       .  S
Zr608       O614   2.392       .  S
Zr608       O615   2.381       .  S
Zr609       O611   2.434       .  S
Zr609       O633   2.437       .  S
Zr609       O635   2.461       .  S
Zr609       O613   2.398       .  S
Zr609       O616   2.390       .  S
Zr610       O636   2.435       .  S
Zr610       O637   2.437       .  S
Zr610       O612   2.437       .  S
Zr610       O613   2.391       .  S
Zr610       O614   2.371       .  S
O611        H648   0.990       .  S
O612        H643   0.990       .  S
O612        H657   0.989       .  S
O614        H640   0.966       .  S
O615       Zr625   2.375       .  S
O616       Zr625   2.363       .  S
O616        H641   0.967       .  S
C617       C3229   1.480       .  S
C618       C3328   1.484       .  S
C619       C3292   1.485       .  S
O620        H656   0.990       .  S
O621        C623   1.284       .  A
O622        C623   1.287       .  A
C623       C3337   1.475   1_565  S
O624       Zr625   2.439       .  S
O624        H653   0.990       .  S
Zr625       O628   2.438       .  S
Zr625       O629   2.439       .  S
Zr625       O630   2.429       .  S
O626        C631   1.282       .  A
O627        H644   0.990       .  S
O627        H659   0.990       .  S
O628        H645   0.990       .  S
O629        H649   0.989       .  S
O629        H658   0.991       .  S
O630        C631   1.284       .  A
C631       C3241   1.481       .  S
O632        H651   0.990       .  S
O632        H655   0.991       .  S
O633        H647   0.990       .  S
O633        H654   0.990       .  S
O634        C638   1.285       .  A
O635        C638   1.291       .  A
O636        H646   0.990       .  S
O637        H650   0.990       .  S
C638       C3484   1.491       .  S
Zr661       O662   2.438       .  S
Zr661       O663   2.428       .  S
Zr661       O664   2.439       .  S
Zr661       O667   2.432       .  S
Zr661       O669   2.382       .  S
Zr661       O670   2.380       .  S
Zr661       O671   2.400       .  S
Zr661       O672   2.396       .  S
O662        H718   0.990       .  S
O662        H726   0.990       .  S
O663        C683   1.283       .  A
O664        C685   1.286       .  A
O665       Zr675   2.416       .  S
O665        C684   1.283       .  A
O666       Zr674   2.451       .  S
O666        C685   1.289       .  A
O667        C684   1.285       .  A
O668       Zr676   2.434       .  S
O668        C683   1.285       .  A
O669       Zr674   2.391       .  S
O669       Zr676   2.365       .  S
O670       Zr675   2.384       .  S
O670       Zr676   2.379       .  S
O670        H705   0.963       .  S
O671       Zr674   2.400       .  S
O671       Zr691   2.397       .  S
O671        H708   0.963       .  S
O672       Zr675   2.389       .  S
O672       Zr691   2.382       .  S
Zr673       O698   2.443       .  S
Zr673       O692   2.463       .  S
Zr673       O700   2.459       .  S
Zr673       O688   2.421       .  S
Zr673       O679   2.386       .  S
Zr673       O680   2.425       .  S
Zr673       O681   2.383       .  S
Zr673       O682   2.387       .  S
Zr674       O693   2.434       .  S
Zr674       O686   2.433   1_455  S
Zr674       O687   2.444   1_455  S
Zr674       O680   2.401       .  S
Zr674       O681   2.391       .  S
Zr675       O677   2.437       .  S
Zr675       O699   2.440       .  S
Zr675       O701   2.422       .  S
Zr675       O679   2.374       .  S
Zr675       O682   2.394       .  S
Zr676       O702   2.435       .  S
Zr676       O703   2.437       .  S
Zr676       O678   2.437       .  S
Zr676       O679   2.378       .  S
Zr676       O680   2.411       .  S
O677        H714   0.990       .  S
O678        H709   0.990       .  S
O678        H723   0.990       .  S
O680        H706   0.966       .  S
O681       Zr691   2.376       .  S
O682       Zr691   2.395       .  S
O682        H707   0.967       .  S
C683       C3409   1.476       .  S
C684       C3265   1.473       .  S
C685       C3208   1.492       .  S
O686        H722   0.990       .  S
O687        C689   1.287       .  A
O688        C689   1.280   1_455  A
C689       C3280   1.484       .  S
O690       Zr691   2.435       .  S
O690        H719   0.990       .  S
Zr691       O694   2.437       .  S
Zr691       O695   2.438       .  S
Zr691       O696   2.394       .  S
O692        C697   1.287       .  A
O693        H710   0.990       .  S
O693        H725   0.989       .  S
O694        H711   0.991       .  S
O695        H715   0.990       .  S
O695        H724   0.991       .  S
O696        C697   1.276       .  A
C697       C3400   1.474   1_565  S
O698        H717   0.992       .  S
O698        H721   0.989       .  S
O699        H713   0.990       .  S
O699        H720   0.991       .  S
O700        C704   1.289       .  A
O701        C704   1.281       .  A
O702        H712   0.990       .  S
O703        H716   0.990       .  S
C704       C3217   1.481       .  S
Zr727       O728   2.442       .  S
Zr727       O729   2.466       .  S
Zr727       O730   2.456       .  S
Zr727       O733   2.417       .  S
Zr727       O735   2.377       .  S
Zr727       O736   2.385       .  S
Zr727       O737   2.408       .  S
Zr727       O738   2.419       .  S
O728        H784   0.990       .  S
O728        H792   0.990       .  S
O729        C749   1.289       .  A
O730        C751   1.288       .  A
O731       Zr741   2.442       .  S
O731        C750   1.287       .  A
O732       Zr740   2.412       .  S
O732        C751   1.280       .  A
O733        C750   1.281       .  A
O734       Zr742   2.399       .  S
O734        C749   1.277       .  A
O735       Zr740   2.397       .  S
O735       Zr742   2.389       .  S
O736       Zr741   2.390       .  S
O736       Zr742   2.377       .  S
O736        H771   0.964       .  S
O737       Zr740   2.398       .  S
O737       Zr757   2.380       .  S
O737        H774   0.964       .  S
O738       Zr741   2.393       .  S
O738       Zr757   2.401       .  S
Zr739       O764   2.440       .  S
Zr739       O758   2.413       .  S
Zr739       O766   2.444       .  S
Zr739       O754   2.437       .  S
Zr739       O745   2.394       .  S
Zr739       O746   2.400       .  S
Zr739       O747   2.379       .  S
Zr739       O748   2.386       .  S
Zr740       O759   2.437       .  S
Zr740       O752   2.435       .  S
Zr740       O753   2.416       .  S
Zr740       O746   2.396       .  S
Zr740       O747   2.382       .  S
Zr741       O743   2.435       .  S
Zr741       O765   2.436       .  S
Zr741       O767   2.443       .  S
Zr741       O745   2.393       .  S
Zr741       O748   2.389       .  S
Zr742       O768   2.435       .  S
Zr742       O769   2.436       .  S
Zr742       O744   2.439       .  S
Zr742       O745   2.395       .  S
Zr742       O746   2.378       .  S
O743        H780   0.990       .  S
O744        H775   0.989       .  S
O744        H789   0.990       .  S
O746        H772   0.964       .  S
O747       Zr757   2.371       .  S
O748       Zr757   2.362       .  S
O748        H773   0.965       .  S
C749       C3313   1.477       .  S
C750       C3232   1.485       .  S
C751       C3220   1.479       .  S
O752        H788   0.990       .  S
O753        C755   1.282       .  A
O754        C755   1.285       .  A
C755       C3244   1.473   1_455  S
O756       Zr757   2.439       .  S
O756        H785   0.990   1_565  S
Zr757       O760   2.438       .  S
Zr757       O761   2.441   1_565  S
Zr757       O762   2.431       .  S
O758        C763   1.281   1_565  A
O759        H776   0.990       .  S
O759        H791   0.989       .  S
O760        H777   0.990   1_565  S
O761        H781   0.989       .  S
O761        H790   0.991       .  S
O762        C763   1.284   1_565  A
C763       C3304   1.466       .  S
O764        H783   0.990       .  S
O764        H787   0.989       .  S
O765        H779   0.990       .  S
O765        H786   0.989       .  S
O766        C770   1.288       .  A
O767        C770   1.288       .  A
O768        H778   0.991       .  S
O769        H782   0.990       .  S
C770       C3424   1.489       .  S
Zr793       O794   2.439       .  S
Zr793       O795   2.428       .  S
Zr793       O796   2.424       .  S
Zr793       O799   2.431       .  S
Zr793       O801   2.385       .  S
Zr793       O802   2.385       .  S
Zr793       O803   2.403       .  S
Zr793       O804   2.393       .  S
O794        H850   0.990       .  S
O794        H858   0.991       .  S
O795        C815   1.283       .  A
O796        C817   1.284       .  A
O797       Zr807   2.429       .  S
O797        C816   1.283       .  A
O798       Zr806   2.434       .  S
O798        C817   1.285       .  A
O799        C816   1.284       .  A
O800       Zr808   2.433       .  S
O800        C815   1.284       .  A
O801       Zr806   2.395       .  S
O801       Zr808   2.364       .  S
O802       Zr807   2.388       .  S
O802       Zr808   2.384       .  S
O802        H837   0.969       .  S
O803       Zr806   2.404       .  S
O803       Zr823   2.393       .  S
O803        H840   0.967       .  S
O804       Zr807   2.383       .  S
O804       Zr823   2.379       .  S
Zr805       O830   2.442       .  S
Zr805       O824   2.460       .  S
Zr805       O832   2.461       .  S
Zr805       O820   2.433       .  S
Zr805       O811   2.391       .  S
Zr805       O812   2.422       .  S
Zr805       O813   2.381       .  S
Zr805       O814   2.385       .  S
Zr806       O825   2.435       .  S
Zr806       O818   2.435       .  S
Zr806       O819   2.447       .  S
Zr806       O812   2.398       .  S
Zr806       O813   2.385       .  S
Zr807       O809   2.435       .  S
Zr807       O831   2.439       .  S
Zr807       O833   2.420       .  S
Zr807       O811   2.382       .  S
Zr807       O814   2.395       .  S
Zr808       O834   2.435       .  S
Zr808       O835   2.435       .  S
Zr808       O810   2.438       .  S
Zr808       O811   2.383       .  S
Zr808       O812   2.412       .  S
O809        H846   0.990       .  S
O810        H841   0.990       .  S
O810        H855   0.989       .  S
O812        H838   0.965       .  S
O813       Zr823   2.381       .  S
O814       Zr823   2.395       .  S
O814        H839   0.964       .  S
C815       C3181   1.470       .  S
C816       C3160   1.472       .  S
C817       C3445   1.475       .  S
O818        H854   0.990       .  S
O819        C821   1.287       .  A
O820        C821   1.281       .  A
C821       C3148   1.483       .  S
O822       Zr823   2.437       .  S
O822        H851   0.990       .  S
Zr823       O826   2.433       .  S
Zr823       O827   2.440       .  S
Zr823       O828   2.388       .  S
O824        C829   1.288       .  A
O825        H842   0.991       .  S
O825        H857   0.989       .  S
O826        H843   0.989       .  S
O827        H847   0.990       .  S
O827        H856   0.990       .  S
O828        C829   1.276       .  A
C829       C3172   1.476       .  S
O830        H849   0.991       .  S
O830        H853   0.991       .  S
O831        H845   0.990       .  S
O831        H852   0.990       .  S
O832        C836   1.290       .  A
O833        C836   1.282       .  A
O834        H844   0.990       .  S
O835        H848   0.990       .  S
C836       C3193   1.482       .  S
Zr859       O860   2.443       .  S
Zr859       O861   2.469       .  S
Zr859       O862   2.449       .  S
Zr859       O865   2.422       .  S
Zr859       O867   2.380       .  S
Zr859       O868   2.383       .  S
Zr859       O869   2.416       .  S
Zr859       O870   2.420       .  S
O860        H916   0.991       .  S
O860        H924   0.990       .  S
O861        C881   1.289       .  A
O862        C883   1.286       .  A
O863       Zr873   2.452       .  S
O863        C882   1.289       .  A
O864       Zr872   2.429       .  S
O864        C883   1.283       .  A
O865        C882   1.281       .  A
O866       Zr874   2.386       .  S
O866        C881   1.275       .  A
O867       Zr872   2.401       .  S
O867       Zr874   2.390       .  S
O868       Zr873   2.391       .  S
O868       Zr874   2.378       .  S
O868        H903   0.964       .  S
O869       Zr872   2.399       .  S
O869       Zr889   2.383       .  S
O869        H906   0.963       .  S
O870       Zr873   2.394       .  S
O870       Zr889   2.413       .  S
Zr871       O896   2.437       .  S
Zr871       O890   2.409       .  S
Zr871       O898   2.436       .  S
Zr871       O886   2.439       .  S
Zr871       O877   2.397       .  S
Zr871       O878   2.395       .  S
Zr871       O879   2.380       .  S
Zr871       O880   2.385       .  S
Zr872       O891   2.438       .  S
Zr872       O884   2.434       .  S
Zr872       O885   2.429       .  S
Zr872       O878   2.395       .  S
Zr872       O879   2.383       .  S
Zr873       O875   2.435       .  S
Zr873       O897   2.435       .  S
Zr873       O899   2.454       .  S
Zr873       O877   2.398       .  S
Zr873       O880   2.390       .  S
Zr874       O900   2.435       .  S
Zr874       O901   2.437       .  S
Zr874       O876   2.438       .  S
Zr874       O877   2.396       .  S
Zr874       O878   2.371       .  S
O875        H912   0.990       .  S
O876        H907   0.990       .  S
O876        H921   0.990       .  S
O878        H904   0.966       .  S
O879       Zr889   2.370       .  S
O880       Zr889   2.358       .  S
O880        H905   0.967       .  S
C881       C3109   1.481       .  S
C882       C3088   1.487       .  S
C883       C3196   1.484       .  S
O884        H920   0.990       .  S
O885        C887   1.286       .  A
O886        C887   1.287       .  A
C887       C3100   1.479       .  S
O888       Zr889   2.439       .  S
O888        H917   0.990       .  S
Zr889       O892   2.439       .  S
Zr889       O893   2.442       .  S
Zr889       O894   2.447       .  S
O890        C895   1.280       .  A
O891        H908   0.990       .  S
O891        H923   0.991       .  S
O892        H909   0.990       .  S
O893        H913   0.991       .  S
O893        H922   0.990       .  S
O894        C895   1.287       .  A
C895       C3124   1.470       .  S
O896        H915   0.989       .  S
O896        H919   0.990       .  S
O897        H911   0.991       .  S
O897        H918   0.990       .  S
O898        C902   1.287       .  A
O899        C902   1.290       .  A
O900        H910   0.989       .  S
O901        H914   0.990       .  S
C902       C3133   1.490       .  S
Zr925       O926   2.438       .  S
Zr925       O927   2.417       .  S
Zr925       O928   2.439       .  S
Zr925       O931   2.424       .  S
Zr925       O933   2.378       .  S
Zr925       O934   2.387       .  S
Zr925       O935   2.399   1_545  S
Zr925       O936   2.400       .  S
O926        H982   0.991       .  S
O926        H990   0.990       .  S
O927        C947   1.280       .  A
O928        C949   1.286       .  A
O929       Zr939   2.430       .  S
O929        C948   1.283       .  A
O930       Zr938   2.436       .  S
O930        C949   1.286   1_565  A
O931        C948   1.283       .  A
O932       Zr940   2.440       .  S
O932        C947   1.286       .  A
O933       Zr938   2.391   1_545  S
O933       Zr940   2.361       .  S
O934       Zr939   2.389       .  S
O934       Zr940   2.379       .  S
O934        H969   0.966       .  S
O935       Zr938   2.398       .  S
O935       Zr955   2.395       .  S
O935        H972   0.966       .  S
O936       Zr939   2.387       .  S
O936       Zr955   2.385   1_545  S
Zr937       O962   2.442       .  S
Zr937       O956   2.468       .  S
Zr937       O964   2.474       .  S
Zr937       O952   2.429       .  S
Zr937       O943   2.393       .  S
Zr937       O944   2.423       .  S
Zr937       O945   2.382       .  S
Zr937       O946   2.389       .  S
Zr938       O957   2.436       .  S
Zr938       O950   2.435       .  S
Zr938       O951   2.439       .  S
Zr938       O944   2.397       .  S
Zr938       O945   2.384       .  S
Zr939       O941   2.435       .  S
Zr939       O963   2.438       .  S
Zr939       O965   2.426       .  S
Zr939       O943   2.386   1_545  S
Zr939       O946   2.393   1_545  S
Zr940       O966   2.435       .  S
Zr940       O967   2.436   1_545  S
Zr940       O942   2.437       .  S
Zr940       O943   2.387   1_545  S
Zr940       O944   2.414   1_545  S
O941        H978   0.991       .  S
O942        H973   0.991       .  S
O942        H987   0.989   1_545  S
O944        H970   0.966       .  S
O945       Zr955   2.378       .  S
O946       Zr955   2.399       .  S
O946        H971   0.968       .  S
C947       C3076   1.480       .  S
C948       C3184   1.474       .  S
C949       C3664   1.488       .  S
O950        H986   0.990       .  S
O951        C953   1.287       .  A
O952        C953   1.282       .  A
C953       C3169   1.486       .  S
O954       Zr955   2.436       .  S
O954        H983   0.990       .  S
Zr955       O958   2.436       .  S
Zr955       O959   2.440       .  S
Zr955       O960   2.388       .  S
O956        C961   1.289       .  A
O957        H974   0.991       .  S
O957        H989   0.989       .  S
O958        H975   0.990       .  S
O959        H979   0.990       .  S
O959        H988   0.990       .  S
O960        C961   1.275       .  A
C961       C3064   1.475       .  S
O962        H981   0.989       .  S
O962        H985   0.991       .  S
O963        H977   0.991       .  S
O963        H984   0.989       .  S
O964        C968   1.290       .  A
O965        C968   1.282   1_545  A
O966        H976   0.990       .  S
O967        H980   0.990       .  S
C968       C3049   1.491       .  S
Zr991       O992   2.443       .  S
Zr991       O993   2.474       .  S
Zr991       O994   2.469       .  S
Zr991       O997   2.422       .  S
Zr991       O999   2.381       .  S
Zr991      O1000   2.389       .  S
Zr991      O1001   2.412   1_545  S
Zr991      O1002   2.424       .  S
O992       H1048   0.991       .  S
O992       H1056   0.991       .  S
O993       C1013   1.291       .  A
O994       C1015   1.290       .  A
O995      Zr1005   2.453       .  S
O995       C1014   1.290       .  A
O996      Zr1004   2.417       .  S
O996       C1015   1.280   1_565  A
O997       C1014   1.283       .  A
O998      Zr1006   2.401       .  S
O998       C1013   1.278       .  A
O999      Zr1004   2.396   1_545  S
O999      Zr1006   2.392       .  S
O1000     Zr1005   2.391       .  S
O1000     Zr1006   2.372       .  S
O1000      H1035   0.963       .  S
O1001     Zr1004   2.398       .  S
O1001     Zr1021   2.380       .  S
O1001      H1038   0.963       .  S
O1002     Zr1005   2.396       .  S
O1002     Zr1021   2.408   1_545  S
Zr1003     O1028   2.442       .  S
Zr1003     O1022   2.412       .  S
Zr1003     O1030   2.437       .  S
Zr1003     O1018   2.443       .  S
Zr1003     O1009   2.400       .  S
Zr1003     O1010   2.400       .  S
Zr1003     O1011   2.378       .  S
Zr1003     O1012   2.388       .  S
Zr1004     O1023   2.436       .  S
Zr1004     O1016   2.433       .  S
Zr1004     O1017   2.414       .  S
Zr1004     O1010   2.396       .  S
Zr1004     O1011   2.386       .  S
Zr1005     O1007   2.434       .  S
Zr1005     O1029   2.435       .  S
Zr1005     O1031   2.451   1_545  S
Zr1005     O1009   2.399   1_545  S
Zr1005     O1012   2.390   1_545  S
Zr1006     O1032   2.436       .  S
Zr1006     O1033   2.438   1_545  S
Zr1006     O1008   2.437       .  S
Zr1006     O1009   2.396   1_545  S
Zr1006     O1010   2.384   1_545  S
O1007      H1044   0.990       .  S
O1008      H1039   0.991       .  S
O1008      H1053   0.990       .  S
O1010      H1036   0.967       .  S
O1011     Zr1021   2.372       .  S
O1012     Zr1021   2.358       .  S
O1012      H1037   0.963       .  S
C1013      C3025   1.484       .  S
C1014      C3112   1.489       .  S
C1015      C3052   1.487   1_545  S
O1016      H1052   0.990       .  S
O1017      C1019   1.281       .  A
O1018      C1019   1.287       .  A
C1019      C3121   1.473       .  S
O1020     Zr1021   2.440       .  S
O1020      H1049   0.990       .  S
Zr1021     O1024   2.436       .  S
Zr1021     O1025   2.440       .  S
Zr1021     O1026   2.443       .  S
O1022      C1027   1.281       .  A
O1023      H1040   0.990       .  S
O1023      H1055   0.989       .  S
O1024      H1041   0.989       .  S
O1025      H1045   0.989       .  S
O1025      H1054   0.989       .  S
O1026      C1027   1.287       .  A
C1027      C3013   1.485       .  S
O1028      H1047   0.990       .  S
O1028      H1051   0.990       .  S
O1029      H1043   0.990       .  S
O1029      H1050   0.989       .  S
O1030      C1034   1.287       .  A
O1031      C1034   1.289       .  A
O1032      H1042   0.990       .  S
O1033      H1046   0.990       .  S
C1034      C3037   1.490       .  S
Zr1057     O1058   2.439       .  S
Zr1057     O1059   2.424       .  S
Zr1057     O1060   2.428       .  S
Zr1057     O1063   2.430       .  S
Zr1057     O1065   2.380       .  S
Zr1057     O1066   2.385       .  S
Zr1057     O1067   2.399   1_655  S
Zr1057     O1068   2.394       .  S
O1058      H1114   0.990       .  S
O1058      H1122   0.991       .  S
O1059      C1079   1.282       .  A
O1060      C1081   1.285       .  A
O1061     Zr1071   2.435       .  S
O1061      C1080   1.285       .  A
O1062     Zr1070   2.452       .  S
O1062      C1081   1.288   1_455  A
O1063      C1080   1.285       .  A
O1064     Zr1072   2.438       .  S
O1064      C1079   1.285       .  A
O1065     Zr1070   2.396   1_655  S
O1065     Zr1072   2.365       .  S
O1066     Zr1071   2.387       .  S
O1066     Zr1072   2.380       .  S
O1066      H1101   0.966       .  S
O1067     Zr1070   2.397       .  S
O1067     Zr1087   2.399       .  S
O1067      H1104   0.966       .  S
O1068     Zr1071   2.387       .  S
O1068     Zr1087   2.378   1_655  S
Zr1069     O1094   2.440       .  S
Zr1069     O1088   2.472       .  S
Zr1069     O1096   2.475       .  S
Zr1069     O1084   2.416       .  S
Zr1069     O1075   2.391   1_455  S
Zr1069     O1076   2.426       .  S
Zr1069     O1077   2.382       .  S
Zr1069     O1078   2.384       .  S
Zr1070     O1089   2.437       .  S
Zr1070     O1082   2.434       .  S
Zr1070     O1083   2.451       .  S
Zr1070     O1076   2.399       .  S
Zr1070     O1077   2.389       .  S
Zr1071     O1073   2.436       .  S
Zr1071     O1095   2.439       .  S
Zr1071     O1097   2.431       .  S
Zr1071     O1075   2.383       .  S
Zr1071     O1078   2.397   1_655  S
Zr1072     O1098   2.435       .  S
Zr1072     O1099   2.435       .  S
Zr1072     O1074   2.438       .  S
Zr1072     O1075   2.384       .  S
Zr1072     O1076   2.413   1_655  S
O1073      H1110   0.990       .  S
O1074      H1105   0.990       .  S
O1074      H1119   0.990       .  S
O1076      H1102   0.965       .  S
O1077     Zr1087   2.381       .  S
O1078     Zr1087   2.398       .  S
O1078      H1103   0.965       .  S
C1079      C3157   1.468       .  S
C1080      C3073   1.475       .  S
C1081      C3532   1.494       .  S
O1082      H1118   0.990       .  S
O1083      C1085   1.288       .  A
O1084      C1085   1.279       .  A
C1085      C3061   1.481       .  S
O1086     Zr1087   2.440       .  S
O1086      H1115   0.990       .  S
Zr1087     O1090   2.437       .  S
Zr1087     O1091   2.440       .  S
Zr1087     O1092   2.402       .  S
O1088      C1093   1.290       .  A
O1089      H1106   0.989       .  S
O1089      H1121   0.990       .  S
O1090      H1107   0.989       .  S
O1091      H1111   0.989       .  S
O1091      H1120   0.989       .  S
O1092      C1093   1.279       .  A
C1093      C3145   1.488       .  S
O1094      H1113   0.990       .  S
O1094      H1117   0.989       .  S
O1095      H1109   0.990       .  S
O1095      H1116   0.989       .  S
O1096      C1100   1.291       .  A
O1097      C1100   1.284   1_655  A
O1098      H1108   0.990       .  S
O1099      H1112   0.990   1_655  S
C1100      C3001   1.496       .  S
Zr1123     O1124   2.440       .  S
Zr1123     O1125   2.482       .  S
Zr1123     O1126   2.476       .  S
Zr1123     O1129   2.419       .  S
Zr1123     O1131   2.379       .  S
Zr1123     O1132   2.389       .  S
Zr1123     O1133   2.414   1_655  S
Zr1123     O1134   2.429       .  S
O1124      H1180   0.989       .  S
O1124      H1188   0.991       .  S
O1125      C1145   1.292       .  A
O1126      C1147   1.290       .  A
O1127     Zr1137   2.448       .  S
O1127      C1146   1.289       .  A
O1128     Zr1136   2.427       .  S
O1128      C1147   1.284   1_455  A
O1129      C1146   1.281       .  A
O1130     Zr1138   2.398       .  S
O1130      C1145   1.277       .  A
O1131     Zr1136   2.402   1_655  S
O1131     Zr1138   2.399       .  S
O1132     Zr1137   2.394       .  S
O1132     Zr1138   2.370       .  S
O1132      H1167   0.966       .  S
O1133     Zr1136   2.394       .  S
O1133     Zr1153   2.385       .  S
O1133      H1170   0.962       .  S
O1134     Zr1137   2.393       .  S
O1134     Zr1153   2.406   1_655  S
Zr1135     O1160   2.445       .  S
Zr1135     O1154   2.414       .  S
Zr1135     O1162   2.439       .  S
Zr1135     O1150   2.455       .  S
Zr1135     O1141   2.400   1_455  S
Zr1135     O1142   2.399       .  S
Zr1135     O1143   2.381       .  S
Zr1135     O1144   2.392       .  S
Zr1136     O1155   2.437       .  S
Zr1136     O1148   2.433       .  S
Zr1136     O1149   2.411       .  S
Zr1136     O1142   2.400       .  S
Zr1136     O1143   2.383       .  S
Zr1137     O1139   2.435       .  S
Zr1137     O1161   2.436       .  S
Zr1137     O1163   2.451       .  S
Zr1137     O1141   2.400       .  S
Zr1137     O1144   2.389   1_655  S
Zr1138     O1164   2.435       .  S
Zr1138     O1165   2.436       .  S
Zr1138     O1140   2.437       .  S
Zr1138     O1141   2.391       .  S
Zr1138     O1142   2.376   1_655  S
O1139      H1176   0.990       .  S
O1140      H1171   0.991       .  S
O1140      H1185   0.990       .  S
O1142      H1168   0.966       .  S
O1143     Zr1153   2.376       .  S
O1144     Zr1153   2.360       .  S
O1144      H1169   0.964       .  S
C1145      C3085   1.485       .  S
C1146      C3028   1.484       .  S
C1147      C3004   1.498       .  S
O1148      H1184   0.989       .  S
O1149      C1151   1.282       .  A
O1150      C1151   1.289       .  A
C1151      C3016   1.477       .  S
O1152     Zr1153   2.440       .  S
O1152      H1181   0.990       .  S
Zr1153     O1156   2.439       .  S
Zr1153     O1157   2.441       .  S
Zr1153     O1158   2.439       .  S
O1154      C1159   1.281       .  A
O1155      H1172   0.990       .  S
O1155      H1187   0.990       .  S
O1156      H1173   0.989       .  S
O1157      H1177   0.990       .  S
O1157      H1186   0.990       .  S
O1158      C1159   1.286       .  A
C1159      C3097   1.474       .  S
O1160      H1179   0.990       .  S
O1160      H1183   0.990       .  S
O1161      H1175   0.991       .  S
O1161      H1182   0.989       .  S
O1162      C1166   1.287       .  A
O1163      C1166   1.289   1_655  A
O1164      H1174   0.990       .  S
O1165      H1178   0.990   1_655  S
C1166      C2992   1.487       .  S
Zr1189     O1190   2.438       .  S
Zr1189     O1191   2.415       .  S
Zr1189     O1192   2.424       .  S
Zr1189     O1195   2.428       .  S
Zr1189     O1197   2.379       .  S
Zr1189     O1198   2.382       .  S
Zr1189     O1199   2.398       .  S
Zr1189     O1200   2.394       .  S
O1190      H1246   0.990       .  S
O1190      H1254   0.990       .  S
O1191      C1211   1.281       .  A
O1192      C1213   1.283       .  A
O1193     Zr1203   2.415       .  S
O1193      C1212   1.282       .  A
O1194     Zr1202   2.452       .  S
O1194      C1213   1.289       .  A
O1195      C1212   1.284       .  A
O1196     Zr1204   2.432       .  S
O1196      C1211   1.285       .  A
O1197     Zr1202   2.390       .  S
O1197     Zr1204   2.363       .  S
O1198     Zr1203   2.385       .  S
O1198     Zr1204   2.380       .  S
O1198      H1233   0.967       .  S
O1199     Zr1202   2.401       .  S
O1199     Zr1219   2.393       .  S
O1199      H1236   0.969       .  S
O1200     Zr1203   2.389       .  S
O1200     Zr1219   2.380       .  S
Zr1201     O1226   2.442       .  S
Zr1201     O1220   2.466       .  S
Zr1201     O1228   2.482       .  S
Zr1201     O1216   2.424       .  S
Zr1201     O1207   2.390       .  S
Zr1201     O1208   2.423       .  S
Zr1201     O1209   2.384       .  S
Zr1201     O1210   2.388       .  S
Zr1202     O1221   2.435       .  S
Zr1202     O1214   2.435       .  S
Zr1202     O1215   2.449       .  S
Zr1202     O1208   2.401       .  S
Zr1202     O1209   2.385       .  S
Zr1203     O1205   2.437       .  S
Zr1203     O1227   2.439       .  S
Zr1203     O1229   2.431       .  S
Zr1203     O1207   2.382       .  S
Zr1203     O1210   2.392       .  S
Zr1204     O1230   2.435       .  S
Zr1204     O1231   2.435       .  S
Zr1204     O1206   2.437       .  S
Zr1204     O1207   2.385       .  S
Zr1204     O1208   2.411       .  S
O1205      H1242   0.990       .  S
O1206      H1237   0.990       .  S
O1206      H1251   0.991       .  S
O1208      H1234   0.966       .  S
O1209     Zr1219   2.374       .  S
O1210     Zr1219   2.400       .  S
O1210      H1235   0.965       .  S
C1211      C2944   1.478       .  S
C1212      C2917   1.475   1_455  S
C1213      C2977   1.484       .  S
O1214      H1250   0.990       .  S
O1215      C1217   1.288       .  A
O1216      C1217   1.282       .  A
C1217      C2929   1.494       .  S
O1218     Zr1219   2.438       .  S
O1218      H1247   0.990       .  S
Zr1219     O1222   2.437       .  S
Zr1219     O1223   2.440       .  S
Zr1219     O1224   2.388       .  S
O1220      C1225   1.289       .  A
O1221      H1238   0.990       .  S
O1221      H1253   0.989       .  S
O1222      H1239   0.990       .  S
O1223      H1243   0.990       .  S
O1223      H1252   0.990       .  S
O1224      C1225   1.275       .  A
C1225      C2956   1.477       .  S
O1226      H1245   0.989       .  S
O1226      H1249   0.992       .  S
O1227      H1241   0.990       .  S
O1227      H1248   0.990       .  S
O1228      C1232   1.292       .  A
O1229      C1232   1.282       .  A
O1230      H1240   0.990       .  S
O1231      H1244   0.990       .  S
C1232      C2965   1.496       .  S
Zr1255     O1256   2.443       .  S
Zr1255     O1257   2.485       .  S
Zr1255     O1258   2.479       .  S
Zr1255     O1261   2.435       .  S
Zr1255     O1263   2.383       .  S
Zr1255     O1264   2.388       .  S
Zr1255     O1265   2.416       .  S
Zr1255     O1266   2.427       .  S
O1256      H1312   0.991       .  S
O1256      H1320   0.990       .  S
O1257      C1277   1.292       .  A
O1258      C1279   1.292       .  A
O1259     Zr1269   2.444       .  S
O1259      C1278   1.288       .  A
O1260     Zr1268   2.430       .  S
O1260      C1279   1.283       .  A
O1261      C1278   1.284       .  A
O1262     Zr1270   2.390       .  S
O1262      C1277   1.276       .  A
O1263     Zr1268   2.406       .  S
O1263     Zr1270   2.394       .  S
O1264     Zr1269   2.393       .  S
O1264     Zr1270   2.376       .  S
O1264      H1299   0.967       .  S
O1265     Zr1268   2.400       .  S
O1265     Zr1285   2.376       .  S
O1265      H1302   0.961       .  S
O1266     Zr1269   2.400       .  S
O1266     Zr1285   2.407       .  S
Zr1267     O1292   2.440       .  S
Zr1267     O1286   2.413       .  S
Zr1267     O1294   2.432       .  S
Zr1267     O1282   2.434       .  S
Zr1267     O1273   2.397       .  S
Zr1267     O1274   2.397       .  S
Zr1267     O1275   2.376       .  S
Zr1267     O1276   2.385       .  S
Zr1268     O1287   2.438       .  S
Zr1268     O1280   2.436       .  S
Zr1268     O1281   2.437       .  S
Zr1268     O1274   2.396       .  S
Zr1268     O1275   2.383       .  S
Zr1269     O1271   2.436   1_455  S
Zr1269     O1293   2.435       .  S
Zr1269     O1295   2.453       .  S
Zr1269     O1273   2.396       .  S
Zr1269     O1276   2.387       .  S
Zr1270     O1296   2.437       .  S
Zr1270     O1297   2.436       .  S
Zr1270     O1272   2.437       .  S
Zr1270     O1273   2.394       .  S
Zr1270     O1274   2.380       .  S
O1271      H1308   0.990       .  S
O1272      H1303   0.990       .  S
O1272      H1317   0.991       .  S
O1274      H1300   0.965       .  S
O1275     Zr1285   2.372       .  S
O1276     Zr1285   2.352       .  S
O1276      H1301   0.965       .  S
C1277      C2896   1.487       .  S
C1278      C2869   1.489   1_455  S
C1279      C2968   1.495       .  S
O1280      H1316   0.990       .  S
O1281      C1283   1.286       .  A
O1282      C1283   1.286       .  A
C1283      C2884   1.483       .  S
O1284     Zr1285   2.438       .  S
O1284      H1313   0.990       .  S
Zr1285     O1288   2.438       .  S
Zr1285     O1289   2.439       .  S
Zr1285     O1290   2.436       .  S
O1286      C1291   1.281       .  A
O1287      H1304   0.990       .  S
O1287      H1319   0.990       .  S
O1288      H1305   0.990       .  S
O1289      H1309   0.989       .  S
O1289      H1318   0.989   1_455  S
O1290      C1291   1.285       .  A
C1291      C2908   1.478       .  S
O1292      H1311   0.990       .  S
O1292      H1315   0.991       .  S
O1293      H1307   0.990       .  S
O1293      H1314   0.989       .  S
O1294      C1298   1.286       .  A
O1295      C1298   1.289       .  A
O1296      H1306   0.990       .  S
O1297      H1310   0.990       .  S
C1298      C2989   1.488       .  S
Zr1321     O1322   2.433       .  S
Zr1321     O1323   2.422       .  S
Zr1321     O1324   2.453       .  S
Zr1321     O1327   2.442       .  S
Zr1321     O1329   2.383       .  S
Zr1321     O1330   2.384       .  S
Zr1321     O1331   2.401       .  S
Zr1321     O1332   2.392       .  S
O1322      H1378   0.989       .  S
O1322      H1386   0.990       .  S
O1323      C1343   1.282   1_455  A
O1324      C1345   1.290       .  A
O1325     Zr1335   2.413       .  S
O1325      C1344   1.281       .  A
O1326     Zr1334   2.455       .  S
O1326      C1345   1.290       .  A
O1327      C1344   1.287       .  A
O1328     Zr1336   2.440   1_655  S
O1328      C1343   1.286       .  A
O1329     Zr1334   2.392       .  S
O1329     Zr1336   2.364       .  S
O1330     Zr1335   2.387       .  S
O1330     Zr1336   2.380       .  S
O1330      H1365   0.962       .  S
O1331     Zr1334   2.398       .  S
O1331     Zr1351   2.397       .  S
O1331      H1368   0.968       .  S
O1332     Zr1335   2.389       .  S
O1332     Zr1351   2.377       .  S
Zr1333     O1358   2.442       .  S
Zr1333     O1352   2.474       .  S
Zr1333     O1360   2.460       .  S
Zr1333     O1348   2.421       .  S
Zr1333     O1339   2.385       .  S
Zr1333     O1340   2.429       .  S
Zr1333     O1341   2.381       .  S
Zr1333     O1342   2.381       .  S
Zr1334     O1353   2.435       .  S
Zr1334     O1346   2.435       .  S
Zr1334     O1347   2.448       .  S
Zr1334     O1340   2.400       .  S
Zr1334     O1341   2.393       .  S
Zr1335     O1337   2.436       .  S
Zr1335     O1359   2.441       .  S
Zr1335     O1361   2.426       .  S
Zr1335     O1339   2.375       .  S
Zr1335     O1342   2.391       .  S
Zr1336     O1362   2.435       .  S
Zr1336     O1363   2.436       .  S
Zr1336     O1338   2.438   1_455  S
Zr1336     O1339   2.383       .  S
Zr1336     O1340   2.414       .  S
O1337      H1374   0.990       .  S
O1338      H1369   0.991       .  S
O1338      H1383   0.989       .  S
O1340      H1366   0.966       .  S
O1341     Zr1351   2.379       .  S
O1342     Zr1351   2.400       .  S
O1342      H1367   0.964       .  S
C1343      C2833   1.475       .  S
C1344      C2941   1.473   1_565  S
C1345      C2857   1.501       .  S
O1346      H1382   0.990       .  S
O1347      C1349   1.288       .  A
O1348      C1349   1.280       .  A
C1349      C2953   1.481       .  S
O1350     Zr1351   2.441       .  S
O1350      H1379   0.990       .  S
Zr1351     O1354   2.439       .  S
Zr1351     O1355   2.438       .  S
Zr1351     O1356   2.393       .  S
O1352      C1357   1.290       .  A
O1353      H1370   0.991       .  S
O1353      H1385   0.990       .  S
O1354      H1371   0.990       .  S
O1355      H1375   0.989       .  S
O1355      H1384   0.990       .  S
O1356      C1357   1.276       .  A
C1357      C2824   1.487       .  S
O1358      H1377   0.990       .  S
O1358      H1381   0.990       .  S
O1359      H1373   0.990       .  S
O1359      H1380   0.990       .  S
O1360      C1364   1.288       .  A
O1361      C1364   1.284       .  A
O1362      H1372   0.990       .  S
O1363      H1376   0.990       .  S
C1364      C2845   1.488       .  S
Zr1387     O1388   2.441       .  S
Zr1387     O1389   2.462       .  S
Zr1387     O1390   2.464       .  S
Zr1387     O1393   2.425       .  S
Zr1387     O1395   2.384       .  S
Zr1387     O1396   2.386       .  S
Zr1387     O1397   2.414       .  S
Zr1387     O1398   2.421       .  S
O1388      H1444   0.990       .  S
O1388      H1452   0.988       .  S
O1389      C1409   1.287       .  A
O1390      C1411   1.289       .  A
O1391     Zr1401   2.450       .  S
O1391      C1410   1.289       .  A
O1392     Zr1400   2.441       .  S
O1392      C1411   1.286       .  A
O1393      C1410   1.281       .  A
O1394     Zr1402   2.384       .  S
O1394      C1409   1.275       .  A
O1395     Zr1400   2.398       .  S
O1395     Zr1402   2.395       .  S
O1396     Zr1401   2.393       .  S
O1396     Zr1402   2.378       .  S
O1396      H1431   0.964       .  S
O1397     Zr1400   2.403       .  S
O1397     Zr1417   2.372       .  S
O1397      H1434   0.963       .  S
O1398     Zr1401   2.394       .  S
O1398     Zr1417   2.406       .  S
Zr1399     O1424   2.438       .  S
Zr1399     O1418   2.415       .  S
Zr1399     O1426   2.433       .  S
Zr1399     O1414   2.436       .  S
Zr1399     O1405   2.396       .  S
Zr1399     O1406   2.400       .  S
Zr1399     O1407   2.379       .  S
Zr1399     O1408   2.385       .  S
Zr1400     O1419   2.439       .  S
Zr1400     O1412   2.434       .  S
Zr1400     O1413   2.430       .  S
Zr1400     O1406   2.400       .  S
Zr1400     O1407   2.391       .  S
Zr1401     O1403   2.434       .  S
Zr1401     O1425   2.435       .  S
Zr1401     O1427   2.456       .  S
Zr1401     O1405   2.395       .  S
Zr1401     O1408   2.390       .  S
Zr1402     O1428   2.435       .  S
Zr1402     O1429   2.439       .  S
Zr1402     O1404   2.440       .  S
Zr1402     O1405   2.392       .  S
Zr1402     O1406   2.371       .  S
O1403      H1440   0.990   1_565  S
O1404      H1435   0.991   1_455  S
O1404      H1449   0.989       .  S
O1406      H1432   0.965       .  S
O1407     Zr1417   2.375       .  S
O1408     Zr1417   2.359       .  S
O1408      H1433   0.965       .  S
C1409      C2797   1.477   1_455  S
C1410      C2893   1.492   1_565  S
C1411      C2848   1.489       .  S
O1412      H1448   0.990       .  S
O1413      C1415   1.285       .  A
O1414      C1415   1.285       .  A
C1415      C2905   1.472       .  S
O1416     Zr1417   2.440       .  S
O1416      H1445   0.990       .  S
Zr1417     O1420   2.439       .  S
Zr1417     O1421   2.440       .  S
Zr1417     O1422   2.431       .  S
O1418      C1423   1.281       .  A
O1419      H1436   0.991       .  S
O1419      H1451   0.990       .  S
O1420      H1437   0.990       .  S
O1421      H1441   0.989       .  S
O1421      H1450   0.991       .  S
O1422      C1423   1.284       .  A
C1423      C2812   1.465       .  S
O1424      H1443   0.991       .  S
O1424      H1447   0.990       .  S
O1425      H1439   0.989       .  S
O1425      H1446   0.990       .  S
O1426      C1430   1.286       .  A
O1427      C1430   1.290       .  A
O1428      H1438   0.990       .  S
O1429      H1442   0.990       .  S
C1430      C3040   1.486       .  S
Zr1453     O1454   2.438       .  S
Zr1453     O1455   2.413       .  S
Zr1453     O1456   2.447       .  S
Zr1453     O1459   2.445       .  S
Zr1453     O1461   2.385       .  S
Zr1453     O1462   2.393       .  S
Zr1453     O1463   2.402       .  S
Zr1453     O1464   2.395       .  S
O1454      H1510   0.990       .  S
O1454      H1518   0.989       .  S
O1455      C1475   1.280   1_565  A
O1456      C1477   1.288       .  A
O1457     Zr1467   2.413       .  S
O1457      C1476   1.283       .  A
O1458     Zr1466   2.437       .  S
O1458      C1477   1.286       .  A
O1459      C1476   1.287       .  A
O1460     Zr1468   2.434   1_545  S
O1460      C1475   1.284       .  A
O1461     Zr1466   2.390       .  S
O1461     Zr1468   2.361       .  S
O1462     Zr1467   2.382       .  S
O1462     Zr1468   2.386       .  S
O1462      H1497   0.967       .  S
O1463     Zr1466   2.398       .  S
O1463     Zr1483   2.396       .  S
O1463      H1500   0.966       .  S
O1464     Zr1467   2.390       .  S
O1464     Zr1483   2.376       .  S
Zr1465     O1490   2.442       .  S
Zr1465     O1484   2.466       .  S
Zr1465     O1492   2.468       .  S
Zr1465     O1480   2.425       .  S
Zr1465     O1471   2.399       .  S
Zr1465     O1472   2.428       .  S
Zr1465     O1473   2.389       .  S
Zr1465     O1474   2.387       .  S
Zr1466     O1485   2.433       .  S
Zr1466     O1478   2.435       .  S
Zr1466     O1479   2.439       .  S
Zr1466     O1472   2.399       .  S
Zr1466     O1473   2.393       .  S
Zr1467     O1469   2.436       .  S
Zr1467     O1491   2.441       .  S
Zr1467     O1493   2.429       .  S
Zr1467     O1471   2.373       .  S
Zr1467     O1474   2.396       .  S
Zr1468     O1494   2.435       .  S
Zr1468     O1495   2.437       .  S
Zr1468     O1470   2.436   1_565  S
Zr1468     O1471   2.386       .  S
Zr1468     O1472   2.402       .  S
O1469      H1506   0.991       .  S
O1470      H1501   0.990       .  S
O1470      H1515   0.990       .  S
O1472      H1498   0.965       .  S
O1473     Zr1483   2.378       .  S
O1474     Zr1483   2.393       .  S
O1474      H1499   0.967       .  S
C1475      C2920   1.469       .  S
C1476      C2836   1.481       .  S
C1477      C2773   1.495       .  S
O1478      H1514   0.990       .  S
O1479      C1481   1.286       .  A
O1480      C1481   1.280       .  A
C1481      C2821   1.476       .  S
O1482     Zr1483   2.436       .  S
O1482      H1511   0.989       .  S
Zr1483     O1486   2.434       .  S
Zr1483     O1487   2.436       .  S
Zr1483     O1488   2.393       .  S
O1484      C1489   1.288       .  A
O1485      H1502   0.989       .  S
O1485      H1517   0.990       .  S
O1486      H1503   0.989       .  S
O1487      H1507   0.990       .  S
O1487      H1516   0.990       .  S
O1488      C1489   1.277       .  A
C1489      C2932   1.488       .  S
O1490      H1509   0.991       .  S
O1490      H1513   0.990       .  S
O1491      H1505   0.991       .  S
O1491      H1512   0.990       .  S
O1492      C1496   1.290       .  A
O1493      C1496   1.283       .  A
O1494      H1504   0.991   1_565  S
O1495      H1508   0.991       .  S
C1496      C2785   1.485       .  S
Zr1519     O1520   2.442       .  S
Zr1519     O1521   2.475       .  S
Zr1519     O1522   2.487       .  S
Zr1519     O1525   2.419       .  S
Zr1519     O1527   2.379       .  S
Zr1519     O1528   2.391       .  S
Zr1519     O1529   2.403       .  S
Zr1519     O1530   2.428       .  S
O1520      H1576   0.990       .  S
O1520      H1584   0.991       .  S
O1521      C1541   1.290       .  A
O1522      C1543   1.293       .  A
O1523     Zr1533   2.444       .  S
O1523      C1542   1.288       .  A
O1524     Zr1532   2.418       .  S
O1524      C1543   1.281       .  A
O1525      C1542   1.282       .  A
O1526     Zr1534   2.401       .  S
O1526      C1541   1.278       .  A
O1527     Zr1532   2.398       .  S
O1527     Zr1534   2.396       .  S
O1528     Zr1533   2.391       .  S
O1528     Zr1534   2.373       .  S
O1528      H1563   0.965       .  S
O1529     Zr1532   2.399       .  S
O1529     Zr1549   2.374       .  S
O1529      H1566   0.961       .  S
O1530     Zr1533   2.395       .  S
O1530     Zr1549   2.402       .  S
Zr1531     O1556   2.438       .  S
Zr1531     O1550   2.432       .  S
Zr1531     O1558   2.444       .  S
Zr1531     O1546   2.439       .  S
Zr1531     O1537   2.406       .  S
Zr1531     O1538   2.403       .  S
Zr1531     O1539   2.381       .  S
Zr1531     O1540   2.387       .  S
Zr1532     O1551   2.438       .  S
Zr1532     O1544   2.434       .  S
Zr1532     O1545   2.417       .  S
Zr1532     O1538   2.395       .  S
Zr1532     O1539   2.389       .  S
Zr1533     O1535   2.436       .  S
Zr1533     O1557   2.436       .  S
Zr1533     O1559   2.443       .  S
Zr1533     O1537   2.400       .  S
Zr1533     O1540   2.392       .  S
Zr1534     O1560   2.436       .  S
Zr1534     O1561   2.437       .  S
Zr1534     O1536   2.437       .  S
Zr1534     O1537   2.402       .  S
Zr1534     O1538   2.379       .  S
O1535      H1572   0.991       .  S
O1536      H1567   0.990   1_565  S
O1536      H1581   0.990       .  S
O1538      H1564   0.966       .  S
O1539     Zr1549   2.375       .  S
O1540     Zr1549   2.354       .  S
O1540      H1565   0.966       .  S
C1541      C2872   1.482   1_565  S
C1542      C2800   1.486       .  S
C1543      C2788   1.486       .  S
O1544      H1580   0.990       .  S
O1545      C1547   1.281       .  A
O1546      C1547   1.287       .  A
C1547      C2809   1.474       .  S
O1548     Zr1549   2.439       .  S
O1548      H1577   0.990       .  S
Zr1549     O1552   2.436       .  S
Zr1549     O1553   2.441       .  S
Zr1549     O1554   2.428       .  S
O1550      C1555   1.283       .  A
O1551      H1568   0.991       .  S
O1551      H1583   0.989       .  S
O1552      H1569   0.990       .  S
O1553      H1573   0.990       .  S
O1553      H1582   0.990       .  S
O1554      C1555   1.283       .  A
C1555      C2881   1.476       .  S
O1556      H1575   0.990       .  S
O1556      H1579   0.990       .  S
O1557      H1571   0.990       .  S
O1557      H1578   0.989       .  S
O1558      C1562   1.288       .  A
O1559      C1562   1.286       .  A
O1560      H1570   0.990       .  S
O1561      H1574   0.990       .  S
C1562      C3136   1.493       .  S
Zr1585     O1586   2.439       .  S
Zr1585     O1587   2.416       .  S
Zr1585     O1588   2.441       .  S
Zr1585     O1591   2.427       .  S
Zr1585     O1593   2.379       .  S
Zr1585     O1594   2.387       .  S
Zr1585     O1595   2.399       .  S
Zr1585     O1596   2.394       .  S
O1586      H1642   0.990       .  S
O1586      H1650   0.990       .  S
O1587      C1607   1.282   1_655  A
O1588      C1609   1.288       .  A
O1589     Zr1599   2.423       .  S
O1589      C1608   1.283       .  A
O1590     Zr1598   2.460       .  S
O1590      C1609   1.290       .  A
O1591      C1608   1.285       .  A
O1592     Zr1600   2.429   1_455  S
O1592      C1607   1.284       .  A
O1593     Zr1598   2.387       .  S
O1593     Zr1600   2.362       .  S
O1594     Zr1599   2.387       .  S
O1594     Zr1600   2.377       .  S
O1594      H1629   0.967       .  S
O1595     Zr1598   2.400       .  S
O1595     Zr1615   2.399       .  S
O1595      H1632   0.967       .  S
O1596     Zr1599   2.387       .  S
O1596     Zr1615   2.374       .  S
Zr1597     O1622   2.442       .  S
Zr1597     O1616   2.479       .  S
Zr1597     O1624   2.471       .  S
Zr1597     O1612   2.421       .  S
Zr1597     O1603   2.389       .  S
Zr1597     O1604   2.431       .  S
Zr1597     O1605   2.381       .  S
Zr1597     O1606   2.382       .  S
Zr1598     O1617   2.435       .  S
Zr1598     O1610   2.434       .  S
Zr1598     O1611   2.442       .  S
Zr1598     O1604   2.406       .  S
Zr1598     O1605   2.392       .  S
Zr1599     O1601   2.436       .  S
Zr1599     O1623   2.440       .  S
Zr1599     O1625   2.437       .  S
Zr1599     O1603   2.373       .  S
Zr1599     O1606   2.396       .  S
Zr1600     O1626   2.434       .  S
Zr1600     O1627   2.434       .  S
Zr1600     O1602   2.435   1_655  S
Zr1600     O1603   2.380       .  S
Zr1600     O1604   2.411       .  S
O1601      H1638   0.990       .  S
O1602      H1633   0.990       .  S
O1602      H1647   0.991       .  S
O1604      H1630   0.967       .  S
O1605     Zr1615   2.375       .  S
O1606     Zr1615   2.400       .  S
O1606      H1631   0.965       .  S
C1607      C2713   1.480       .  S
C1608      C2737   1.474       .  S
C1609      C2860   1.504       .  S
O1610      H1646   0.990       .  S
O1611      C1613   1.287       .  A
O1612      C1613   1.280       .  A
C1613      C2752   1.481       .  S
O1614     Zr1615   2.437       .  S
O1614      H1643   0.989       .  S
Zr1615     O1618   2.436       .  S
Zr1615     O1619   2.440       .  S
Zr1615     O1620   2.388       .  S
O1616      C1621   1.291       .  A
O1617      H1634   0.990       .  S
O1617      H1649   0.989       .  S
O1618      H1635   0.990       .  S
O1619      H1639   0.991       .  S
O1619      H1648   0.990       .  S
O1620      C1621   1.276       .  A
C1621      C2725   1.484       .  S
O1622      H1641   0.990       .  S
O1622      H1645   0.991       .  S
O1623      H1637   0.990       .  S
O1623      H1644   0.990       .  S
O1624      C1628   1.292       .  A
O1625      C1628   1.285       .  A
O1626      H1636   0.990       .  S
O1627      H1640   0.991       .  S
C1628      C2761   1.492       .  S
Zr1651     O1652   2.443       .  S
Zr1651     O1653   2.481       .  S
Zr1651     O1654   2.475       .  S
Zr1651     O1657   2.421       .  S
Zr1651     O1659   2.383       .  S
Zr1651     O1660   2.385       .  S
Zr1651     O1661   2.418       .  S
Zr1651     O1662   2.431       .  S
O1652      H1708   0.990       .  S
O1652      H1716   0.990       .  S
O1653      C1673   1.292       .  A
O1654      C1675   1.290       .  A
O1655     Zr1665   2.448       .  S
O1655      C1674   1.288       .  A
O1656     Zr1664   2.436       .  S
O1656      C1675   1.284       .  A
O1657      C1674   1.281       .  A
O1658     Zr1666   2.393       .  S
O1658      C1673   1.276       .  A
O1659     Zr1664   2.398       .  S
O1659     Zr1666   2.399       .  S
O1660     Zr1665   2.390       .  S
O1660     Zr1666   2.378       .  S
O1660      H1695   0.965       .  S
O1661     Zr1664   2.402       .  S
O1661     Zr1681   2.378       .  S
O1661      H1698   0.965       .  S
O1662     Zr1665   2.398       .  S
O1662     Zr1681   2.414       .  S
Zr1663     O1688   2.437       .  S
Zr1663     O1682   2.410       .  S
Zr1663     O1690   2.442       .  S
Zr1663     O1678   2.437       .  S
Zr1663     O1669   2.394       .  S
Zr1663     O1670   2.396       .  S
Zr1663     O1671   2.379       .  S
Zr1663     O1672   2.383       .  S
Zr1664     O1683   2.438       .  S
Zr1664     O1676   2.434       .  S
Zr1664     O1677   2.430       .  S
Zr1664     O1670   2.394       .  S
Zr1664     O1671   2.385       .  S
Zr1665     O1667   2.436       .  S
Zr1665     O1689   2.435       .  S
Zr1665     O1691   2.450       .  S
Zr1665     O1669   2.397       .  S
Zr1665     O1672   2.386       .  S
Zr1666     O1692   2.437       .  S
Zr1666     O1693   2.439       .  S
Zr1666     O1668   2.436       .  S
Zr1666     O1669   2.393       .  S
Zr1666     O1670   2.382       .  S
O1667      H1704   0.990       .  S
O1668      H1699   0.990   1_655  S
O1668      H1713   0.990       .  S
O1670      H1696   0.966       .  S
O1671     Zr1681   2.364       .  S
O1672     Zr1681   2.357       .  S
O1672      H1697   0.966       .  S
C1673      C2680   1.485   1_655  S
C1674      C2653   1.484       .  S
C1675      C2764   1.492       .  S
O1676      H1712   0.990       .  S
O1677      C1679   1.285       .  A
O1678      C1679   1.287       .  A
C1679      C2668   1.477       .  S
O1680     Zr1681   2.439       .  S
O1680      H1709   0.990       .  S
Zr1681     O1684   2.436       .  S
Zr1681     O1685   2.441       .  S
Zr1681     O1686   2.445       .  S
O1682      C1687   1.281       .  A
O1683      H1700   0.989       .  S
O1683      H1715   0.990       .  S
O1684      H1701   0.990       .  S
O1685      H1705   0.991       .  S
O1685      H1714   0.989       .  S
O1686      C1687   1.286       .  A
C1687      C2689   1.470       .  S
O1688      H1707   0.990       .  S
O1688      H1711   0.990       .  S
O1689      H1703   0.990       .  S
O1689      H1710   0.990       .  S
O1690      C1694   1.289       .  A
O1691      C1694   1.289       .  A
O1692      H1702   0.991       .  S
O1693      H1706   0.990       .  S
C1694      C2701   1.495       .  S
Zr1717     O1718   2.438       .  S
Zr1717     O1719   2.423       .  S
Zr1717     O1720   2.432       .  S
Zr1717     O1723   2.424       .  S
Zr1717     O1725   2.381       .  S
Zr1717     O1726   2.385       .  S
Zr1717     O1727   2.403       .  S
Zr1717     O1728   2.393       .  S
O1718      H1774   0.990       .  S
O1718      H1782   0.989       .  S
O1719      C1739   1.281       .  A
O1720      C1741   1.284       .  A
O1721     Zr1731   2.429       .  S
O1721      C1740   1.284       .  A
O1722     Zr1730   2.443       .  S
O1722      C1741   1.287       .  A
O1723      C1740   1.283       .  A
O1724     Zr1732   2.433       .  S
O1724      C1739   1.284       .  A
O1725     Zr1730   2.394       .  S
O1725     Zr1732   2.361       .  S
O1726     Zr1731   2.383       .  S
O1726     Zr1732   2.385       .  S
O1726      H1761   0.964       .  S
O1727     Zr1730   2.402       .  S
O1727     Zr1747   2.401       .  S
O1727      H1764   0.968       .  S
O1728     Zr1731   2.388       .  S
O1728     Zr1747   2.378       .  S
Zr1729     O1754   2.444       .  S
Zr1729     O1748   2.465       .  S
Zr1729     O1756   2.473       .  S
Zr1729     O1744   2.429       .  S
Zr1729     O1735   2.391       .  S
Zr1729     O1736   2.425       .  S
Zr1729     O1737   2.384       .  S
Zr1729     O1738   2.385       .  S
Zr1730     O1749   2.434       .  S
Zr1730     O1742   2.434       .  S
Zr1730     O1743   2.450       .  S
Zr1730     O1736   2.397       .  S
Zr1730     O1737   2.393       .  S
Zr1731     O1733   2.437       .  S
Zr1731     O1755   2.439       .  S
Zr1731     O1757   2.433       .  S
Zr1731     O1735   2.379       .  S
Zr1731     O1738   2.396       .  S
Zr1732     O1758   2.436       .  S
Zr1732     O1759   2.437       .  S
Zr1732     O1734   2.436       .  S
Zr1732     O1735   2.384       .  S
Zr1732     O1736   2.406       .  S
O1733      H1770   0.990       .  S
O1734      H1765   0.990       .  S
O1734      H1779   0.990       .  S
O1736      H1762   0.966       .  S
O1737     Zr1747   2.381       .  S
O1738     Zr1747   2.399       .  S
O1738      H1763   0.967       .  S
C1739      C2641   1.476       .  S
C1740      C2716   1.472   1_545  S
C1741      C2980   1.481       .  S
O1742      H1778   0.990       .  S
O1743      C1745   1.289       .  A
O1744      C1745   1.283       .  A
C1745      C2728   1.489       .  S
O1746     Zr1747   2.441       .  S
O1746      H1775   0.991       .  S
Zr1747     O1750   2.437       .  S
Zr1747     O1751   2.440       .  S
Zr1747     O1752   2.398       .  S
O1748      C1753   1.289       .  A
O1749      H1766   0.990       .  S
O1749      H1781   0.990       .  S
O1750      H1767   0.989       .  S
O1751      H1771   0.990       .  S
O1751      H1780   0.989       .  S
O1752      C1753   1.278       .  A
C1753      C2629   1.482       .  S
O1754      H1773   0.990       .  S
O1754      H1777   0.991       .  S
O1755      H1769   0.990       .  S
O1755      H1776   0.990       .  S
O1756      C1760   1.291       .  A
O1757      C1760   1.284       .  A
O1758      H1768   0.991       .  S
O1759      H1772   0.990       .  S
C1760      C2617   1.488       .  S
Zr1783     O1784   2.441       .  S
Zr1783     O1785   2.466       .  S
Zr1783     O1786   2.485       .  S
Zr1783     O1789   2.438       .  S
Zr1783     O1791   2.389       .  S
Zr1783     O1792   2.391       .  S
Zr1783     O1793   2.414       .  S
Zr1783     O1794   2.421       .  S
O1784      H1840   0.990       .  S
O1784      H1848   0.991       .  S
O1785      C1805   1.289       .  A
O1786      C1807   1.293       .  A
O1787     Zr1797   2.443       .  S
O1787      C1806   1.288       .  A
O1788     Zr1796   2.432       .  S
O1788      C1807   1.284       .  A
O1789      C1806   1.285       .  A
O1790     Zr1798   2.404       .  S
O1790      C1805   1.279       .  A
O1791     Zr1796   2.402       .  S
O1791     Zr1798   2.390       .  S
O1792     Zr1797   2.393       .  S
O1792     Zr1798   2.376       .  S
O1792      H1827   0.965       .  S
O1793     Zr1796   2.408       .  S
O1793     Zr1813   2.373       .  S
O1793      H1830   0.961       .  S
O1794     Zr1797   2.402       .  S
O1794     Zr1813   2.400       .  S
Zr1795     O1820   2.441       .  S
Zr1795     O1814   2.418       .  S
Zr1795     O1822   2.429       .  S
Zr1795     O1810   2.434       .  S
Zr1795     O1801   2.401       .  S
Zr1795     O1802   2.401       .  S
Zr1795     O1803   2.375       .  S
Zr1795     O1804   2.387       .  S
Zr1796     O1815   2.432       .  S
Zr1796     O1808   2.433       .  S
Zr1796     O1809   2.439       .  S
Zr1796     O1802   2.392       .  S
Zr1796     O1803   2.380       .  S
Zr1797     O1799   2.435   1_545  S
Zr1797     O1821   2.435       .  S
Zr1797     O1823   2.460       .  S
Zr1797     O1801   2.395       .  S
Zr1797     O1804   2.388       .  S
Zr1798     O1824   2.435       .  S
Zr1798     O1825   2.435       .  S
Zr1798     O1800   2.437       .  S
Zr1798     O1801   2.401       .  S
Zr1798     O1802   2.383       .  S
O1799      H1836   0.991       .  S
O1800      H1831   0.991       .  S
O1800      H1845   0.990       .  S
O1802      H1828   0.966       .  S
O1803     Zr1813   2.373       .  S
O1804     Zr1813   2.358       .  S
O1804      H1829   0.964       .  S
C1805      C2581   1.489       .  S
C1806      C2677   1.490   1_545  S
C1807      C2620   1.496       .  S
O1808      H1844   0.990       .  S
O1809      C1811   1.286       .  A
O1810      C1811   1.284       .  A
C1811      C2692   1.474       .  S
O1812     Zr1813   2.440       .  S
O1812      H1841   0.990       .  S
Zr1813     O1816   2.438       .  S
Zr1813     O1817   2.440       .  S
Zr1813     O1818   2.430       .  S
O1814      C1819   1.282       .  A
O1815      H1832   0.989       .  S
O1815      H1847   0.989       .  S
O1816      H1833   0.990       .  S
O1817      H1837   0.989       .  S
O1817      H1846   0.990   1_545  S
O1818      C1819   1.284       .  A
C1819      C2596   1.481       .  S
O1820      H1839   0.990       .  S
O1820      H1843   0.990       .  S
O1821      H1835   0.989       .  S
O1821      H1842   0.990       .  S
O1822      C1826   1.286       .  A
O1823      C1826   1.290       .  A
O1824      H1834   0.990       .  S
O1825      H1838   0.990       .  S
C1826      C2605   1.489       .  S
Zr1849     O1850   2.434       .  S
Zr1849     O1851   2.411       .  S
Zr1849     O1852   2.451       .  S
Zr1849     O1855   2.428       .  S
Zr1849     O1857   2.386       .  S
Zr1849     O1858   2.391       .  S
Zr1849     O1859   2.397       .  S
Zr1849     O1860   2.400       .  S
O1850      H1906   0.990       .  S
O1850      H1914   0.990       .  S
O1851      C1871   1.280   1_545  A
O1852      C1873   1.289       .  A
O1853     Zr1863   2.445       .  S
O1853      C1872   1.286       .  A
O1854     Zr1862   2.446       .  S
O1854      C1873   1.288       .  A
O1855      C1872   1.284       .  A
O1856     Zr1864   2.428   1_565  S
O1856      C1871   1.284       .  A
O1857     Zr1862   2.394       .  S
O1857     Zr1864   2.368       .  S
O1858     Zr1863   2.398       .  S
O1858     Zr1864   2.381       .  S
O1858      H1893   0.964       .  S
O1859     Zr1862   2.400       .  S
O1859     Zr1879   2.388       .  S
O1859      H1896   0.968       .  S
O1860     Zr1863   2.386       .  S
O1860     Zr1879   2.385       .  S
Zr1861     O1886   2.442       .  S
Zr1861     O1880   2.462       .  S
Zr1861     O1888   2.468       .  S
Zr1861     O1876   2.423       .  S
Zr1861     O1867   2.381       .  S
Zr1861     O1868   2.427       .  S
Zr1861     O1869   2.382       .  S
Zr1861     O1870   2.387       .  S
Zr1862     O1881   2.435       .  S
Zr1862     O1874   2.435       .  S
Zr1862     O1875   2.446       .  S
Zr1862     O1868   2.402       .  S
Zr1862     O1869   2.392       .  S
Zr1863     O1865   2.437       .  S
Zr1863     O1887   2.436       .  S
Zr1863     O1889   2.459       .  S
Zr1863     O1867   2.367       .  S
Zr1863     O1870   2.395       .  S
Zr1864     O1890   2.435       .  S
Zr1864     O1891   2.435       .  S
Zr1864     O1866   2.436   1_545  S
Zr1864     O1867   2.369       .  S
Zr1864     O1868   2.413       .  S
O1865      H1902   0.991       .  S
O1866      H1897   0.991       .  S
O1866      H1911   0.989       .  S
O1868      H1894   0.964       .  S
O1869     Zr1879   2.380       .  S
O1870     Zr1879   2.397       .  S
O1870      H1895   0.966       .  S
C1871      C2740   1.477       .  S
C1872      C2644   1.488   1_655  S
C1873      C2776   1.496       .  S
O1874      H1910   0.990       .  S
O1875      C1877   1.287       .  A
O1876      C1877   1.280       .  A
C1877      C2632   1.478       .  S
O1878     Zr1879   2.436       .  S
O1878      H1907   0.991       .  S
Zr1879     O1882   2.436       .  S
Zr1879     O1883   2.438       .  S
Zr1879     O1884   2.394       .  S
O1880      C1885   1.287       .  A
O1881      H1898   0.991       .  S
O1881      H1913   0.990       .  S
O1882      H1899   0.990       .  S
O1883      H1903   0.990       .  S
O1883      H1912   0.989       .  S
O1884      C1885   1.276       .  A
C1885      C2749   1.477       .  S
O1886      H1905   0.990       .  S
O1886      H1909   0.991       .  S
O1887      H1901   0.991       .  S
O1887      H1908   0.989       .  S
O1888      C1892   1.291       .  A
O1889      C1892   1.289       .  A
O1890      H1900   0.990       .  S
O1891      H1904   0.991       .  S
C1892      C2569   1.497       .  S
Zr1915     O1916   2.442       .  S
Zr1915     O1917   2.466       .  S
Zr1915     O1918   2.468       .  S
Zr1915     O1921   2.425       .  S
Zr1915     O1923   2.378       .  S
Zr1915     O1924   2.388       .  S
Zr1915     O1925   2.413       .  S
Zr1915     O1926   2.428       .  S
O1916      H1972   0.991       .  S
O1916      H1980   0.990       .  S
O1917      C1937   1.289       .  A
O1918      C1939   1.290       .  A
O1919     Zr1929   2.453       .  S
O1919      C1938   1.289   1_655  A
O1920     Zr1928   2.442       .  S
O1920      C1939   1.285       .  A
O1921      C1938   1.282   1_655  A
O1922     Zr1930   2.395       .  S
O1922      C1937   1.276       .  A
O1923     Zr1928   2.402       .  S
O1923     Zr1930   2.398       .  S
O1924     Zr1929   2.403       .  S
O1924     Zr1930   2.374       .  S
O1924      H1959   0.966       .  S
O1925     Zr1928   2.397       .  S
O1925     Zr1945   2.375       .  S
O1925      H1962   0.962       .  S
O1926     Zr1929   2.400       .  S
O1926     Zr1945   2.409       .  S
Zr1927     O1952   2.437       .  S
Zr1927     O1946   2.411       .  S
Zr1927     O1954   2.430       .  S
Zr1927     O1942   2.437       .  S
Zr1927     O1933   2.394       .  S
Zr1927     O1934   2.395       .  S
Zr1927     O1935   2.379       .  S
Zr1927     O1936   2.385       .  S
Zr1928     O1947   2.438       .  S
Zr1928     O1940   2.436       .  S
Zr1928     O1941   2.425       .  S
Zr1928     O1934   2.403       .  S
Zr1928     O1935   2.387       .  S
Zr1929     O1931   2.434   1_655  S
Zr1929     O1953   2.435       .  S
Zr1929     O1955   2.471       .  S
Zr1929     O1933   2.396       .  S
Zr1929     O1936   2.388       .  S
Zr1930     O1956   2.435       .  S
Zr1930     O1957   2.436       .  S
Zr1930     O1932   2.437       .  S
Zr1930     O1933   2.390       .  S
Zr1930     O1934   2.377       .  S
O1931      H1968   0.991       .  S
O1932      H1963   0.990   1_545  S
O1932      H1977   0.990       .  S
O1934      H1960   0.965       .  S
O1935     Zr1945   2.372       .  S
O1936     Zr1945   2.356       .  S
O1936      H1961   0.966       .  S
C1937      C2656   1.487   1_545  S
C1938      C2584   1.488       .  S
C1939      C2572   1.497       .  S
O1940      H1976   0.990       .  S
O1941      C1943   1.285       .  A
O1942      C1943   1.286       .  A
C1943      C2593   1.476       .  S
O1944     Zr1945   2.439       .  S
O1944      H1973   0.990       .  S
Zr1945     O1948   2.437       .  S
Zr1945     O1949   2.439       .  S
Zr1945     O1950   2.438       .  S
O1946      C1951   1.280       .  A
O1947      H1964   0.989       .  S
O1947      H1979   0.990       .  S
O1948      H1965   0.990       .  S
O1949      H1969   0.990       .  S
O1949      H1978   0.990       .  S
O1950      C1951   1.285       .  A
C1951      C2665   1.471       .  S
O1952      H1971   0.991       .  S
O1952      H1975   0.989       .  S
O1953      H1967   0.990       .  S
O1953      H1974   0.991       .  S
O1954      C1958   1.286       .  A
O1955      C1958   1.293       .  A
O1956      H1966   0.989       .  S
O1957      H1970   0.990       .  S
C1958      C2557   1.494       .  S
Zr1981     O1982   2.442       .  S
Zr1981     O1983   2.471       .  S
Zr1981     O1984   2.478       .  S
Zr1981     O1987   2.426       .  S
Zr1981     O1989   2.381       .  S
Zr1981     O1990   2.388       .  S
Zr1981     O1991   2.413       .  S
Zr1981     O1992   2.426       .  S
O1982      H2038   0.990       .  S
O1982      H2046   0.990       .  S
O1983      C2003   1.289       .  A
O1984      C2005   1.291       .  A
O1985     Zr1995   2.453       .  S
O1985      C2004   1.289       .  A
O1986     Zr1994   2.429       .  S
O1986      C2005   1.283       .  A
O1987      C2004   1.282       .  A
O1988     Zr1996   2.390       .  S
O1988      C2003   1.275       .  A
O1989     Zr1994   2.400       .  S
O1989     Zr1996   2.395       .  S
O1990     Zr1995   2.390       .  S
O1990     Zr1996   2.379       .  S
O1990      H2025   0.966       .  S
O1991     Zr1994   2.399       .  S
O1991     Zr2011   2.375       .  S
O1991      H2028   0.958       .  S
O1992     Zr1995   2.397       .  S
O1992     Zr2011   2.407       .  S
Zr1993     O2018   2.442       .  S
Zr1993     O2012   2.415       .  S
Zr1993     O2020   2.434       .  S
Zr1993     O2008   2.449       .  S
Zr1993     O1999   2.398       .  S
Zr1993     O2000   2.396       .  S
Zr1993     O2001   2.375       .  S
Zr1993     O2002   2.388       .  S
Zr1994     O2013   2.435       .  S
Zr1994     O2006   2.434       .  S
Zr1994     O2007   2.424       .  S
Zr1994     O2000   2.395       .  S
Zr1994     O2001   2.384       .  S
Zr1995     O1997   2.435       .  S
Zr1995     O2019   2.435       .  S
Zr1995     O2021   2.455       .  S
Zr1995     O1999   2.399       .  S
Zr1995     O2002   2.390       .  S
Zr1996     O2022   2.436       .  S
Zr1996     O2023   2.435       .  S
Zr1996     O1998   2.437       .  S
Zr1996     O1999   2.393       .  S
Zr1996     O2000   2.376       .  S
O1997      H2034   0.990       .  S
O1998      H2029   0.990       .  S
O1998      H2043   0.990       .  S
O2000      H2026   0.966       .  S
O2001     Zr2011   2.372       .  S
O2002     Zr2011   2.358       .  S
O2002      H2027   0.964       .  S
C2003      C2509   1.478       .  S
C2004      C2533   1.485       .  S
C2005      C2545   1.491       .  S
O2006      H2042   0.990       .  S
O2007      C2009   1.284       .  A
O2008      C2009   1.288       .  A
C2009      C2521   1.483       .  S
O2010     Zr2011   2.440       .  S
O2010      H2039   0.990       .  S
Zr2011     O2014   2.440       .  S
Zr2011     O2015   2.442       .  S
Zr2011     O2016   2.436       .  S
O2012      C2017   1.281       .  A
O2013      H2030   0.990       .  S
O2013      H2045   0.989       .  S
O2014      H2031   0.990       .  S
O2015      H2035   0.990       .  S
O2015      H2044   0.990       .  S
O2016      C2017   1.285       .  A
C2017      C2497   1.472       .  S
O2018      H2037   0.990       .  S
O2018      H2041   0.990       .  S
O2019      H2033   0.990       .  S
O2019      H2040   0.989       .  S
O2020      C2024   1.288       .  A
O2021      C2024   1.288       .  A
O2022      H2032   0.990       .  S
O2023      H2036   0.990       .  S
C2024      C2704   1.500       .  S
Zr2047     O2048   2.432       .  S
Zr2047     O2049   2.417       .  S
Zr2047     O2050   2.447       .  S
Zr2047     O2053   2.442       .  S
Zr2047     O2055   2.382       .  S
Zr2047     O2056   2.382       .  S
Zr2047     O2057   2.401       .  S
Zr2047     O2058   2.393       .  S
O2048      H2104   0.990       .  S
O2048      H2112   0.989       .  S
O2049      C2069   1.281       .  A
O2050      C2071   1.288       .  A
O2051     Zr2061   2.418       .  S
O2051      C2070   1.283       .  A
O2052     Zr2060   2.448       .  S
O2052      C2071   1.288       .  A
O2053      C2070   1.287       .  A
O2054     Zr2062   2.437       .  S
O2054      C2069   1.285       .  A
O2055     Zr2060   2.395       .  S
O2055     Zr2062   2.368       .  S
O2056     Zr2061   2.387       .  S
O2056     Zr2062   2.380       .  S
O2056      H2091   0.963       .  S
O2057     Zr2060   2.404       .  S
O2057     Zr2077   2.396       .  S
O2057      H2094   0.968       .  S
O2058     Zr2061   2.389       .  S
O2058     Zr2077   2.378       .  S
Zr2059     O2084   2.444       .  S
Zr2059     O2078   2.457       .  S
Zr2059     O2086   2.474       .  S
Zr2059     O2074   2.417       .  S
Zr2059     O2065   2.386       .  S
Zr2059     O2066   2.424       .  S
Zr2059     O2067   2.387       .  S
Zr2059     O2068   2.384       .  S
Zr2060     O2079   2.436       .  S
Zr2060     O2072   2.433       .  S
Zr2060     O2073   2.453       .  S
Zr2060     O2066   2.395       .  S
Zr2060     O2067   2.392       .  S
Zr2061     O2063   2.436       .  S
Zr2061     O2085   2.440       .  S
Zr2061     O2087   2.422       .  S
Zr2061     O2065   2.382       .  S
Zr2061     O2068   2.391       .  S
Zr2062     O2088   2.434       .  S
Zr2062     O2089   2.440       .  S
Zr2062     O2064   2.437       .  S
Zr2062     O2065   2.387       .  S
Zr2062     O2066   2.405       .  S
O2063      H2100   0.990       .  S
O2064      H2095   0.990       .  S
O2064      H2109   0.990       .  S
O2066      H2092   0.964       .  S
O2067     Zr2077   2.379       .  S
O2068     Zr2077   2.400       .  S
O2068      H2093   0.965       .  S
C2069      C2461   1.475       .  S
C2070      C2488   1.479       .  S
C2071      C3352   1.494       .  S
O2072      H2108   0.990       .  S
O2073      C2075   1.289       .  A
O2074      C2075   1.280       .  A
C2075      C2473   1.479       .  S
O2076     Zr2077   2.436       .  S
O2076      H2105   0.990       .  S
Zr2077     O2080   2.435       .  S
Zr2077     O2081   2.440       .  S
Zr2077     O2082   2.389       .  S
O2078      C2083   1.287       .  A
O2079      H2096   0.990       .  S
O2079      H2111   0.990       .  S
O2080      H2097   0.990       .  S
O2081      H2101   0.991       .  S
O2081      H2110   0.989       .  S
O2082      C2083   1.276       .  A
C2083      C2452   1.476       .  S
O2084      H2103   0.991       .  S
O2084      H2107   0.990       .  S
O2085      H2099   0.990       .  S
O2085      H2106   0.989       .  S
O2086      C2090   1.290       .  A
O2087      C2090   1.283       .  A
O2088      H2098   0.990       .  S
O2089      H2102   0.990       .  S
C2090      C2548   1.493       .  S
Zr2113     O2114   2.441       .  S
Zr2113     O2115   2.465       .  S
Zr2113     O2116   2.475       .  S
Zr2113     O2119   2.426       .  S
Zr2113     O2121   2.384       .  S
Zr2113     O2122   2.390       .  S
Zr2113     O2123   2.415   1_455  S
Zr2113     O2124   2.423       .  S
O2114      H2170   0.990       .  S
O2114      H2178   0.989       .  S
O2115      C2135   1.288       .  A
O2116      C2137   1.291       .  A
O2117     Zr2127   2.451       .  S
O2117      C2136   1.289       .  A
O2118     Zr2126   2.435       .  S
O2118      C2137   1.284   1_655  A
O2119      C2136   1.282       .  A
O2120     Zr2128   2.397       .  S
O2120      C2135   1.277       .  A
O2121     Zr2126   2.398   1_455  S
O2121     Zr2128   2.395       .  S
O2122     Zr2127   2.394       .  S
O2122     Zr2128   2.376       .  S
O2122      H2157   0.966       .  S
O2123     Zr2126   2.402       .  S
O2123     Zr2143   2.377       .  S
O2123      H2160   0.961       .  S
O2124     Zr2127   2.401       .  S
O2124     Zr2143   2.409   1_455  S
Zr2125     O2150   2.440       .  S
Zr2125     O2144   2.426       .  S
Zr2125     O2152   2.437       .  S
Zr2125     O2140   2.435       .  S
Zr2125     O2131   2.401   1_655  S
Zr2125     O2132   2.404       .  S
Zr2125     O2133   2.377       .  S
Zr2125     O2134   2.386       .  S
Zr2126     O2145   2.436       .  S
Zr2126     O2138   2.435       .  S
Zr2126     O2139   2.428       .  S
Zr2126     O2132   2.398       .  S
Zr2126     O2133   2.391       .  S
Zr2127     O2129   2.435       .  S
Zr2127     O2151   2.436       .  S
Zr2127     O2153   2.456       .  S
Zr2127     O2131   2.395       .  S
Zr2127     O2134   2.394   1_455  S
Zr2128     O2154   2.436       .  S
Zr2128     O2155   2.436       .  S
Zr2128     O2130   2.437       .  S
Zr2128     O2131   2.396       .  S
Zr2128     O2132   2.379   1_455  S
O2129      H2166   0.990       .  S
O2130      H2161   0.991       .  S
O2130      H2175   0.989       .  S
O2132      H2158   0.966       .  S
O2133     Zr2143   2.371       .  S
O2134     Zr2143   2.354       .  S
O2134      H2159   0.967       .  S
C2135      C2425   1.477       .  S
C2136      C2512   1.490       .  S
C2137      C2440   1.493       .  S
O2138      H2174   0.990       .  S
O2139      C2141   1.284       .  A
O2140      C2141   1.286       .  A
C2141      C2500   1.478       .  S
O2142     Zr2143   2.439       .  S
O2142      H2171   0.991       .  S
Zr2143     O2146   2.438       .  S
Zr2143     O2147   2.438       .  S
Zr2143     O2148   2.443       .  S
O2144      C2149   1.283       .  A
O2145      H2162   0.991       .  S
O2145      H2177   0.989       .  S
O2146      H2163   0.990       .  S
O2147      H2167   0.988       .  S
O2147      H2176   0.990   1_655  S
O2148      C2149   1.286       .  A
C2149      C2413   1.490       .  S
O2150      H2169   0.991       .  S
O2150      H2173   0.989       .  S
O2151      H2165   0.990       .  S
O2151      H2172   0.989       .  S
O2152      C2156   1.288       .  A
O2153      C2156   1.290   1_455  A
O2154      H2164   0.991       .  S
O2155      H2168   0.990   1_455  S
C2156      C2560   1.495       .  S
Zr2179     O2180   2.438       .  S
Zr2179     O2181   2.426       .  S
Zr2179     O2182   2.461       .  S
Zr2179     O2185   2.438       .  S
Zr2179     O2187   2.379       .  S
Zr2179     O2188   2.392       .  S
Zr2179     O2189   2.399   1_455  S
Zr2179     O2190   2.405       .  S
O2180      H2236   0.990       .  S
O2180      H2244   0.990       .  S
O2181      C2201   1.283       .  A
O2182      C2203   1.290       .  A
O2183     Zr2193   2.418       .  S
O2183      C2202   1.282       .  A
O2184     Zr2192   2.438       .  S
O2184      C2203   1.286   1_655  A
O2185      C2202   1.286       .  A
O2186     Zr2194   2.425       .  S
O2186      C2201   1.283       .  A
O2187     Zr2192   2.391   1_455  S
O2187     Zr2194   2.366       .  S
O2188     Zr2193   2.392       .  S
O2188     Zr2194   2.384       .  S
O2188      H2223   0.964       .  S
O2189     Zr2192   2.399       .  S
O2189     Zr2209   2.395       .  S
O2189      H2226   0.968       .  S
O2190     Zr2193   2.391       .  S
O2190     Zr2209   2.385   1_455  S
Zr2191     O2216   2.441       .  S
Zr2191     O2210   2.460       .  S
Zr2191     O2218   2.481       .  S
Zr2191     O2206   2.428       .  S
Zr2191     O2197   2.379   1_655  S
Zr2191     O2198   2.425       .  S
Zr2191     O2199   2.386       .  S
Zr2191     O2200   2.388       .  S
Zr2192     O2211   2.435       .  S
Zr2192     O2204   2.434       .  S
Zr2192     O2205   2.435       .  S
Zr2192     O2198   2.403       .  S
Zr2192     O2199   2.392       .  S
Zr2193     O2195   2.439       .  S
Zr2193     O2217   2.442       .  S
Zr2193     O2219   2.439       .  S
Zr2193     O2197   2.371       .  S
Zr2193     O2200   2.391   1_455  S
Zr2194     O2220   2.436       .  S
Zr2194     O2221   2.439       .  S
Zr2194     O2196   2.437       .  S
Zr2194     O2197   2.374       .  S
Zr2194     O2198   2.413   1_455  S
O2195      H2232   0.991       .  S
O2196      H2227   0.991       .  S
O2196      H2241   0.990       .  S
O2198      H2224   0.963       .  S
O2199     Zr2209   2.377       .  S
O2200     Zr2209   2.402       .  S
O2200      H2225   0.965       .  S
C2201      C2401   1.475       .  S
C2202      C2464   1.483       .  S
C2203      C3205   1.495       .  S
O2204      H2240   0.990       .  S
O2205      C2207   1.285       .  A
O2206      C2207   1.282       .  A
C2207      C2449   1.475       .  S
O2208     Zr2209   2.435       .  S
O2208      H2237   0.990   1_655  S
Zr2209     O2212   2.438       .  S
Zr2209     O2213   2.440       .  S
Zr2209     O2214   2.395       .  S
O2210      C2215   1.288       .  A
O2211      H2228   0.990       .  S
O2211      H2243   0.990       .  S
O2212      H2229   0.990       .  S
O2213      H2233   0.991       .  S
O2213      H2242   0.989       .  S
O2214      C2215   1.276       .  A
C2215      C2389   1.475       .  S
O2216      H2235   0.990       .  S
O2216      H2239   0.990       .  S
O2217      H2231   0.990       .  S
O2217      H2238   0.990       .  S
O2218      C2222   1.293       .  A
O2219      C2222   1.285   1_455  A
O2220      H2230   0.990       .  S
O2221      H2234   0.989   1_455  S
C2222      C2437   1.495       .  S
Zr2245     O2246   2.443       .  S
Zr2245     O2247   2.478       .  S
Zr2245     O2248   2.469       .  S
Zr2245     O2251   2.420       .  S
Zr2245     O2253   2.380       .  S
Zr2245     O2254   2.387       .  S
Zr2245     O2255   2.411   1_565  S
Zr2245     O2256   2.428       .  S
O2246      H2302   0.990       .  S
O2246      H2310   0.991       .  S
O2247      C2267   1.292       .  A
O2248      C2269   1.289       .  A
O2249     Zr2259   2.452       .  S
O2249      C2268   1.289       .  A
O2250     Zr2258   2.445       .  S
O2250      C2269   1.287   1_545  A
O2251      C2268   1.281       .  A
O2252     Zr2260   2.396       .  S
O2252      C2267   1.277       .  A
O2253     Zr2258   2.400   1_565  S
O2253     Zr2260   2.394       .  S
O2254     Zr2259   2.398       .  S
O2254     Zr2260   2.374       .  S
O2254      H2289   0.967       .  S
O2255     Zr2258   2.401       .  S
O2255     Zr2275   2.377       .  S
O2255      H2292   0.971       .  S
O2256     Zr2259   2.395       .  S
O2256     Zr2275   2.412   1_565  S
Zr2257     O2282   2.437       .  S
Zr2257     O2276   2.415       .  S
Zr2257     O2284   2.434       .  S
Zr2257     O2272   2.445       .  S
Zr2257     O2263   2.399   1_545  S
Zr2257     O2264   2.398       .  S
Zr2257     O2265   2.380       .  S
Zr2257     O2266   2.387       .  S
Zr2258     O2277   2.437       .  S
Zr2258     O2270   2.434       .  S
Zr2258     O2271   2.431       .  S
Zr2258     O2264   2.403       .  S
Zr2258     O2265   2.392       .  S
Zr2259     O2261   2.435       .  S
Zr2259     O2283   2.436       .  S
Zr2259     O2285   2.461       .  S
Zr2259     O2263   2.396       .  S
Zr2259     O2266   2.392   1_565  S
Zr2260     O2286   2.438       .  S
Zr2260     O2287   2.437       .  S
Zr2260     O2262   2.437       .  S
Zr2260     O2263   2.395       .  S
Zr2260     O2264   2.374   1_565  S
O2261      H2298   0.990       .  S
O2262      H2293   0.989       .  S
O2262      H2307   0.990       .  S
O2264      H2290   0.961       .  S
O2265     Zr2275   2.371       .  S
O2266     Zr2275   2.360       .  S
O2266      H2291   0.966       .  S
C2267      C2536   1.493       .  S
C2268      C2428   1.483       .  S
C2269      C2377   1.496       .  S
O2270      H2306   0.990       .  S
O2271      C2273   1.285       .  A
O2272      C2273   1.287       .  A
C2273      C2416   1.478       .  S
O2274     Zr2275   2.440       .  S
O2274      H2303   0.991       .  S
Zr2275     O2278   2.439       .  S
Zr2275     O2279   2.441       .  S
Zr2275     O2280   2.442       .  S
O2276      C2281   1.280       .  A
O2277      H2294   0.990       .  S
O2277      H2309   0.991       .  S
O2278      H2295   0.990       .  S
O2279      H2299   0.990       .  S
O2279      H2308   0.990       .  S
O2280      C2281   1.286       .  A
C2281      C2524   1.478       .  S
O2282      H2301   0.990       .  S
O2282      H2305   0.990       .  S
O2283      H2297   0.990       .  S
O2283      H2304   0.990       .  S
O2284      C2288   1.286       .  A
O2285      C2288   1.291   1_565  A
O2286      H2296   0.991       .  S
O2287      H2300   0.990   1_565  S
C2288      C2608   1.486       .  S
Zr2311     O2312   2.437       .  S
Zr2311     O2313   2.418       .  S
Zr2311     O2314   2.428       .  S
Zr2311     O2317   2.424       .  S
Zr2311     O2319   2.381       .  S
Zr2311     O2320   2.385       .  S
Zr2311     O2321   2.396       .  S
Zr2311     O2322   2.393       .  S
O2312      H2368   0.990       .  S
O2312      H2376   0.990       .  S
O2313      C2333   1.281       .  A
O2314      C2335   1.285       .  A
O2315     Zr2325   2.424       .  S
O2315      C2334   1.284       .  A
O2316     Zr2324   2.450   1_565  S
O2316      C2335   1.288       .  A
O2317      C2334   1.283       .  A
O2318     Zr2326   2.447       .  S
O2318      C2333   1.287       .  A
O2319     Zr2324   2.392   1_565  S
O2319     Zr2326   2.364       .  S
O2320     Zr2325   2.386       .  S
O2320     Zr2326   2.381       .  S
O2320      H2355   0.963       .  S
O2321     Zr2324   2.399   1_565  S
O2321     Zr2341   2.394   1_565  S
O2321      H2358   0.967   1_565  S
O2322     Zr2325   2.391       .  S
O2322     Zr2341   2.381   1_565  S
Zr2323     O2348   2.441       .  S
Zr2323     O2342   2.464       .  S
Zr2323     O2350   2.465       .  S
Zr2323     O2338   2.418       .  S
Zr2323     O2329   2.384   1_545  S
Zr2323     O2330   2.427       .  S
Zr2323     O2331   2.382       .  S
Zr2323     O2332   2.384       .  S
Zr2324     O2343   2.436       .  S
Zr2324     O2336   2.435       .  S
Zr2324     O2337   2.444       .  S
Zr2324     O2330   2.401       .  S
Zr2324     O2331   2.391       .  S
Zr2325     O2327   2.436       .  S
Zr2325     O2349   2.439       .  S
Zr2325     O2351   2.439       .  S
Zr2325     O2329   2.373       .  S
Zr2325     O2332   2.394   1_565  S
Zr2326     O2352   2.435       .  S
Zr2326     O2353   2.435       .  S
Zr2326     O2328   2.438       .  S
Zr2326     O2329   2.382       .  S
Zr2326     O2330   2.414   1_565  S
O2327      H2364   0.990       .  S
O2328      H2359   0.990       .  S
O2328      H2373   0.990       .  S
O2330      H2356   0.965       .  S
O2331     Zr2341   2.375       .  S
O2332     Zr2341   2.399       .  S
O2332      H2357   0.965       .  S
C2333      C2485   1.474       .  S
C2334      C2404   1.479       .  S
C2335      C3253   1.492       .  S
O2336      H2372   0.990       .  S
O2337      C2339   1.287       .  A
O2338      C2339   1.279       .  A
C2339      C2392   1.477       .  S
O2340     Zr2341   2.436       .  S
O2340      H2369   0.990   1_545  S
Zr2341     O2344   2.437       .  S
Zr2341     O2345   2.436       .  S
Zr2341     O2346   2.391       .  S
O2342      C2347   1.288       .  A
O2343      H2360   0.990       .  S
O2343      H2375   0.990       .  S
O2344      H2361   0.990       .  S
O2345      H2365   0.989       .  S
O2345      H2374   0.991   1_545  S
O2346      C2347   1.276       .  A
C2347      C2476   1.474       .  S
O2348      H2367   0.990       .  S
O2348      H2371   0.991       .  S
O2349      H2363   0.990       .  S
O2349      H2370   0.990       .  S
O2350      C2354   1.290       .  A
O2351      C2354   1.285   1_565  A
O2352      H2362   0.990       .  S
O2353      H2366   0.991   1_565  S
C2354      C2380   1.493       .  S
C2377      C2378   1.410   1_565  A
C2377      C2382   1.413       .  A
C2378      C2379   1.407   1_554  A
C2378      H2387   1.082       .  S
C2379      C2380   1.411       .  A
C2379      S2383   1.808       .  S
C2380      C2381   1.409   1_545  A
C2381      C2382   1.409   1_556  A
C2381      H2388   1.083       .  S
C2382      S2384   1.806       .  S
S2383      H2386   1.406   1_556  S
S2384      H2385   1.407   1_554  S
C2389      C2390   1.400       .  A
C2389      C2394   1.415       .  A
C2390      C2391   1.401       .  A
C2390      H2399   1.084       .  S
C2391      C2392   1.417       .  A
C2391      S2395   1.802       .  S
C2392      C2393   1.401       .  A
C2393      C2394   1.398       .  A
C2393      H2400   1.084       .  S
C2394      S2396   1.804       .  S
S2395      H2398   1.407       .  S
S2396      H2397   1.408       .  S
C2401      C2402   1.402       .  A
C2401      C2406   1.413       .  A
C2402      C2403   1.402       .  A
C2402      H2411   1.078       .  S
C2403      C2404   1.414       .  A
C2403      S2407   1.807       .  S
C2404      C2405   1.404       .  A
C2405      C2406   1.393       .  A
C2405      H2412   1.084       .  S
C2406      S2408   1.803       .  S
S2407      H2410   1.406       .  S
S2408      H2409   1.406       .  S
C2413      C2414   1.411       .  A
C2413      C2418   1.414       .  A
C2414      C2415   1.406       .  A
C2414      H2423   1.084       .  S
C2415      C2416   1.413       .  A
C2415      S2419   1.805       .  S
C2416      C2417   1.403       .  A
C2417      C2418   1.396       .  A
C2417      H2424   1.084       .  S
C2418      S2420   1.801       .  S
S2419      H2422   1.406       .  S
S2420      H2421   1.407       .  S
C2425      C2426   1.404       .  A
C2425      C2430   1.413       .  A
C2426      C2427   1.395       .  A
C2426      H2435   1.085       .  S
C2427      C2428   1.410       .  A
C2427      S2431   1.803       .  S
C2428      C2429   1.410       .  A
C2429      C2430   1.408       .  A
C2429      H2436   1.084       .  S
C2430      S2432   1.804       .  S
S2431      H2434   1.407       .  S
S2432      H2433   1.404       .  S
C2437      C2438   1.405   1_655  A
C2437      C2442   1.417       .  A
C2438      C2439   1.409   1_556  A
C2438      H2447   1.083       .  S
C2439      C2440   1.419       .  A
C2439      S2443   1.808       .  S
C2440      C2441   1.405   1_455  A
C2441      C2442   1.404   1_554  A
C2441      H2448   1.084       .  S
C2442      S2444   1.800       .  S
S2443      H2446   1.407       .  S
S2444      H2445   1.403       .  S
C2449      C2450   1.406       .  A
C2449      C2454   1.410       .  A
C2450      C2451   1.400       .  A
C2450      H2459   1.084       .  S
C2451      C2452   1.412       .  A
C2451      S2455   1.804       .  S
C2452      C2453   1.406       .  A
C2453      C2454   1.397       .  A
C2453      H2460   1.084       .  S
C2454      S2456   1.802       .  S
S2455      H2458   1.407       .  S
S2456      H2457   1.406       .  S
C2461      C2462   1.406       .  A
C2461      C2466   1.411       .  A
C2462      C2463   1.407       .  A
C2462      H2471   1.083       .  S
C2463      C2464   1.415       .  A
C2463      S2467   1.806       .  S
C2464      C2465   1.405       .  A
C2465      C2466   1.392       .  A
C2465      H2472   1.084       .  S
C2466      S2468   1.802       .  S
S2467      H2470   1.407       .  S
S2468      H2469   1.405       .  S
C2473      C2474   1.400       .  A
C2473      C2478   1.419       .  A
C2474      C2475   1.396       .  A
C2474      H2483   1.084       .  S
C2475      C2476   1.414       .  A
C2475      S2479   1.805       .  S
C2476      C2477   1.401       .  A
C2477      C2478   1.404       .  A
C2477      H2484   1.084       .  S
C2478      S2480   1.804       .  S
S2479      H2482   1.408       .  S
S2480      H2481   1.406       .  S
C2485      C2486   1.403       .  A
C2485      C2490   1.410       .  A
C2486      C2487   1.403       .  A
C2486      H2495   1.084       .  S
C2487      C2488   1.417       .  A
C2487      S2491   1.801       .  S
C2488      C2489   1.404       .  A
C2489      C2490   1.395       .  A
C2489      H2496   1.084       .  S
C2490      S2492   1.801       .  S
S2491      H2494   1.407       .  S
S2492      H2493   1.406       .  S
C2497      C2498   1.402       .  A
C2497      C2502   1.412       .  A
C2498      C2499   1.397       .  A
C2498      H2507   1.084       .  S
C2499      C2500   1.414       .  A
C2499      S2503   1.802       .  S
C2500      C2501   1.404       .  A
C2501      C2502   1.399       .  A
C2501      H2508   1.084       .  S
C2502      S2504   1.803       .  S
S2503      H2506   1.408       .  S
S2504      H2505   1.407       .  S
C2509      C2510   1.405       .  A
C2509      C2514   1.409       .  A
C2510      C2511   1.398       .  A
C2510      H2519   1.085       .  S
C2511      C2512   1.415       .  A
C2511      S2515   1.803       .  S
C2512      C2513   1.412       .  A
C2513      C2514   1.406       .  A
C2513      H2520   1.084       .  S
C2514      S2516   1.802       .  S
S2515      H2518   1.407       .  S
S2516      H2517   1.407       .  S
C2521      C2522   1.405       .  A
C2521      C2526   1.415       .  A
C2522      C2523   1.403       .  A
C2522      H2531   1.084       .  S
C2523      C2524   1.415       .  A
C2523      S2527   1.804       .  S
C2524      C2525   1.402       .  A
C2525      C2526   1.397       .  A
C2525      H2532   1.084       .  S
C2526      S2528   1.802       .  S
S2527      H2530   1.407       .  S
S2528      H2529   1.408       .  S
C2533      C2534   1.400       .  A
C2533      C2538   1.418       .  A
C2534      C2535   1.405       .  A
C2534      H2543   1.083       .  S
C2535      C2536   1.420       .  A
C2535      S2539   1.807       .  S
C2536      C2537   1.405       .  A
C2537      C2538   1.405       .  A
C2537      H2544   1.084       .  S
C2538      S2540   1.805       .  S
S2539      H2542   1.407       .  S
S2540      H2541   1.407       .  S
C2545      C2546   1.407       .  A
C2545      C2550   1.417       .  A
C2546      C2547   1.405   1_554  A
C2546      H2555   1.084       .  S
C2547      C2548   1.419       .  A
C2547      S2551   1.800       .  S
C2548      C2549   1.405       .  A
C2549      C2550   1.399   1_556  A
C2549      H2556   1.084       .  S
C2550      S2552   1.800       .  S
S2551      H2554   1.406       .  S
S2552      H2553   1.404       .  S
C2557      C2558   1.407       .  A
C2557      C2562   1.417       .  A
C2558      C2559   1.408       .  A
C2558      H2567   1.084       .  S
C2559      C2560   1.418       .  A
C2559      S2563   1.802   1_655  S
C2560      C2561   1.406       .  A
C2561      C2562   1.400       .  A
C2561      H2568   1.084       .  S
C2562      S2564   1.802       .  S
S2563      H2566   1.408       .  S
S2564      H2565   1.407       .  S
C2569      C2570   1.409       .  A
C2569      C2574   1.416       .  A
C2570      C2571   1.407       .  A
C2570      H2579   1.084       .  S
C2571      C2572   1.417       .  A
C2571      S2575   1.803       .  S
C2572      C2573   1.408       .  A
C2573      C2574   1.403       .  A
C2573      H2580   1.084       .  S
C2574      S2576   1.803       .  S
S2575      H2578   1.408       .  S
S2576      H2577   1.408       .  S
C2581      C2582   1.408       .  A
C2581      C2586   1.416       .  A
C2582      C2583   1.400       .  A
C2582      H2591   1.084       .  S
C2583      C2584   1.412       .  A
C2583      S2587   1.802       .  S
C2584      C2585   1.409       .  A
C2585      C2586   1.406       .  A
C2585      H2592   1.084       .  S
C2586      S2588   1.804       .  S
S2587      H2590   1.407       .  S
S2588      H2589   1.407       .  S
C2593      C2594   1.404       .  A
C2593      C2598   1.413       .  A
C2594      C2595   1.395       .  A
C2594      H2603   1.084       .  S
C2595      C2596   1.413       .  A
C2595      S2599   1.803       .  S
C2596      C2597   1.409       .  A
C2597      C2598   1.400       .  A
C2597      H2604   1.084       .  S
C2598      S2600   1.805       .  S
S2599      H2602   1.407       .  S
S2600      H2601   1.406       .  S
C2605      C2606   1.406       .  A
C2605      C2610   1.416       .  A
C2606      C2607   1.400       .  A
C2606      H2615   1.084       .  S
C2607      C2608   1.414       .  A
C2607      S2611   1.804       .  S
C2608      C2609   1.406       .  A
C2609      C2610   1.407       .  A
C2609      H2616   1.084       .  S
C2610      S2612   1.801       .  S
S2611      H2614   1.406       .  S
S2612      H2613   1.407       .  S
C2617      C2618   1.396       .  A
C2617      C2622   1.420       .  A
C2618      C2619   1.397       .  A
C2618      H2627   1.084       .  S
C2619      C2620   1.423       .  A
C2619      S2623   1.796       .  S
C2620      C2621   1.405       .  A
C2621      C2622   1.407       .  A
C2621      H2628   1.084       .  S
C2622      S2624   1.802       .  S
S2623      H2626   1.405       .  S
S2624      H2625   1.404       .  S
C2629      C2630   1.402       .  A
C2629      C2634   1.416       .  A
C2630      C2631   1.401       .  A
C2630      H2639   1.084       .  S
C2631      C2632   1.418       .  A
C2631      S2635   1.806       .  S
C2632      C2633   1.400       .  A
C2633      C2634   1.404       .  A
C2633      H2640   1.083       .  S
C2634      S2636   1.807       .  S
S2635      H2638   1.406       .  S
S2636      H2637   1.406       .  S
C2641      C2642   1.401       .  A
C2641      C2646   1.413       .  A
C2642      C2643   1.395       .  A
C2642      H2651   1.085       .  S
C2643      C2644   1.415       .  A
C2643      S2647   1.801       .  S
C2644      C2645   1.408       .  A
C2645      C2646   1.404       .  A
C2645      H2652   1.084       .  S
C2646      S2648   1.804       .  S
S2647      H2650   1.407   1_455  S
S2648      H2649   1.407       .  S
C2653      C2654   1.401       .  A
C2653      C2658   1.419       .  A
C2654      C2655   1.401       .  A
C2654      H2663   1.084       .  S
C2655      C2656   1.419       .  A
C2655      S2659   1.803       .  S
C2656      C2657   1.403       .  A
C2657      C2658   1.401       .  A
C2657      H2664   1.084       .  S
C2658      S2660   1.804       .  S
S2659      H2662   1.407       .  S
S2660      H2661   1.405       .  S
C2665      C2666   1.401       .  A
C2665      C2670   1.413       .  A
C2666      C2667   1.397       .  A
C2666      H2675   1.084       .  S
C2667      C2668   1.414       .  A
C2667      S2671   1.802       .  S
C2668      C2669   1.404       .  A
C2669      C2670   1.400       .  A
C2669      H2676   1.084       .  S
C2670      S2672   1.804       .  S
S2671      H2674   1.407       .  S
S2672      H2673   1.407       .  S
C2677      C2678   1.402       .  A
C2677      C2682   1.418       .  A
C2678      C2679   1.399       .  A
C2678      H2687   1.084       .  S
C2679      C2680   1.418       .  A
C2679      S2683   1.805       .  S
C2680      C2681   1.403       .  A
C2681      C2682   1.407       .  A
C2681      H2688   1.084       .  S
C2682      S2684   1.801       .  S
S2683      H2686   1.404   1_455  S
S2684      H2685   1.408       .  S
C2689      C2690   1.403       .  A
C2689      C2694   1.412       .  A
C2690      C2691   1.399       .  A
C2690      H2699   1.084       .  S
C2691      C2692   1.412       .  A
C2691      S2695   1.803       .  S
C2692      C2693   1.404       .  A
C2693      C2694   1.401       .  A
C2693      H2700   1.084       .  S
C2694      S2696   1.805       .  S
S2695      H2698   1.407       .  S
S2696      H2697   1.406       .  S
C2701      C2702   1.409       .  A
C2701      C2706   1.413       .  A
C2702      C2703   1.413       .  A
C2702      H2711   1.082       .  S
C2703      C2704   1.420       .  A
C2703      S2707   1.808       .  S
C2704      C2705   1.407       .  A
C2705      C2706   1.396       .  A
C2705      H2712   1.082       .  S
C2706      S2708   1.800       .  S
S2707      H2710   1.407       .  S
S2708      H2709   1.407       .  S
C2713      C2714   1.407       .  A
C2713      C2718   1.414       .  A
C2714      C2715   1.399       .  A
C2714      H2723   1.084       .  S
C2715      C2716   1.412       .  A
C2715      S2719   1.806   1_565  S
C2716      C2717   1.402       .  A
C2717      C2718   1.400       .  A
C2717      H2724   1.083       .  S
C2718      S2720   1.809       .  S
S2719      H2722   1.407       .  S
S2720      H2721   1.406       .  S
C2725      C2726   1.406       .  A
C2725      C2730   1.411       .  A
C2726      C2727   1.399       .  A
C2726      H2735   1.084       .  S
C2727      C2728   1.414       .  A
C2727      S2731   1.803       .  S
C2728      C2729   1.411       .  A
C2729      C2730   1.406       .  A
C2729      H2736   1.084       .  S
C2730      S2732   1.802       .  S
S2731      H2734   1.407       .  S
S2732      H2733   1.407       .  S
C2737      C2738   1.402       .  A
C2737      C2742   1.413       .  A
C2738      C2739   1.398       .  A
C2738      H2747   1.084       .  S
C2739      C2740   1.418       .  A
C2739      S2743   1.803   1_565  S
C2740      C2741   1.403       .  A
C2741      C2742   1.397       .  A
C2741      H2748   1.083       .  S
C2742      S2744   1.809       .  S
S2743      H2746   1.407       .  S
S2744      H2745   1.407       .  S
C2749      C2750   1.405       .  A
C2749      C2754   1.411       .  A
C2750      C2751   1.401       .  A
C2750      H2759   1.083       .  S
C2751      C2752   1.411       .  A
C2751      S2755   1.809       .  S
C2752      C2753   1.408       .  A
C2753      C2754   1.403       .  A
C2753      H2760   1.084       .  S
C2754      S2756   1.801       .  S
S2755      H2758   1.406       .  S
S2756      H2757   1.406       .  S
C2761      C2762   1.411       .  A
C2761      C2766   1.412       .  A
C2762      C2763   1.407       .  A
C2762      H2771   1.084       .  S
C2763      C2764   1.412       .  A
C2763      S2767   1.802       .  S
C2764      C2765   1.410       .  A
C2765      C2766   1.403       .  A
C2765      H2772   1.084       .  S
C2766      S2768   1.804       .  S
S2767      H2770   1.407       .  S
S2768      H2769   1.407       .  S
C2773      C2774   1.406   1_565  A
C2773      C2778   1.419       .  A
C2774      C2775   1.401       .  A
C2774      H2783   1.084       .  S
C2775      C2776   1.416       .  A
C2775      S2779   1.798       .  S
C2776      C2777   1.407   1_545  A
C2777      C2778   1.406       .  A
C2777      H2784   1.084       .  S
C2778      S2780   1.801       .  S
S2779      H2782   1.407       .  S
S2780      H2781   1.407       .  S
C2785      C2786   1.398       .  A
C2785      C2790   1.420       .  A
C2786      C2787   1.400       .  A
C2786      H2795   1.084       .  S
C2787      C2788   1.420       .  A
C2787      S2791   1.797       .  S
C2788      C2789   1.400       .  A
C2789      C2790   1.404       .  A
C2789      H2796   1.084       .  S
C2790      S2792   1.800       .  S
S2791      H2794   1.405       .  S
S2792      H2793   1.404       .  S
C2797      C2798   1.404       .  A
C2797      C2802   1.411       .  A
C2798      C2799   1.392       .  A
C2798      H2807   1.085       .  S
C2799      C2800   1.413       .  A
C2799      S2803   1.803       .  S
C2800      C2801   1.413       .  A
C2801      C2802   1.406       .  A
C2801      H2808   1.084       .  S
C2802      S2804   1.803       .  S
S2803      H2806   1.405       .  S
S2804      H2805   1.406       .  S
C2809      C2810   1.405       .  A
C2809      C2814   1.414       .  A
C2810      C2811   1.396       .  A
C2810      H2819   1.084       .  S
C2811      C2812   1.412       .  A
C2811      S2815   1.806       .  S
C2812      C2813   1.401       .  A
C2813      C2814   1.398       .  A
C2813      H2820   1.084       .  S
C2814      S2816   1.802       .  S
S2815      H2818   1.405       .  S
S2816      H2817   1.406       .  S
C2821      C2822   1.399       .  A
C2821      C2826   1.416       .  A
C2822      C2823   1.398       .  A
C2822      H2831   1.084       .  S
C2823      C2824   1.419       .  A
C2823      S2827   1.803       .  S
C2824      C2825   1.405       .  A
C2825      C2826   1.404       .  A
C2825      H2832   1.084       .  S
C2826      S2828   1.805       .  S
S2827      H2830   1.407       .  S
S2828      H2829   1.406       .  S
C2833      C2834   1.405       .  A
C2833      C2838   1.412       .  A
C2834      C2835   1.404       .  A
C2834      H2843   1.084       .  S
C2835      C2836   1.416       .  A
C2835      S2839   1.801       .  S
C2836      C2837   1.404       .  A
C2837      C2838   1.392       .  A
C2837      H2844   1.084       .  S
C2838      S2840   1.802       .  S
S2839      H2842   1.407       .  S
S2840      H2841   1.404   1_655  S
C2845      C2846   1.402       .  A
C2845      C2850   1.418       .  A
C2846      C2847   1.397       .  A
C2846      H2855   1.084       .  S
C2847      C2848   1.419       .  A
C2847      S2851   1.798       .  S
C2848      C2849   1.405       .  A
C2849      C2850   1.404       .  A
C2849      H2856   1.084       .  S
C2850      S2852   1.800       .  S
S2851      H2854   1.404       .  S
S2852      H2853   1.406       .  S
C2857      C2858   1.408       .  A
C2857      C2862   1.417       .  A
C2858      C2859   1.409   1_455  A
C2858      H2867   1.084   1_455  S
C2859      C2860   1.419       .  A
C2859      S2863   1.799       .  S
C2860      C2861   1.408   1_655  A
C2861      C2862   1.404       .  A
C2861      H2868   1.084       .  S
C2862      S2864   1.798       .  S
S2863      H2866   1.407       .  S
S2864      H2865   1.407       .  S
C2869      C2870   1.402       .  A
C2869      C2874   1.419       .  A
C2870      C2871   1.397       .  A
C2870      H2879   1.084       .  S
C2871      C2872   1.413       .  A
C2871      S2875   1.803   1_545  S
C2872      C2873   1.403       .  A
C2873      C2874   1.412       .  A
C2873      H2880   1.083       .  S
C2874      S2876   1.806       .  S
S2875      H2878   1.406       .  S
S2876      H2877   1.407       .  S
C2881      C2882   1.402       .  A
C2881      C2886   1.412       .  A
C2882      C2883   1.400       .  A
C2882      H2891   1.083       .  S
C2883      C2884   1.414       .  A
C2883      S2887   1.807       .  S
C2884      C2885   1.407       .  A
C2885      C2886   1.401       .  A
C2885      H2892   1.084       .  S
C2886      S2888   1.802       .  S
S2887      H2890   1.407       .  S
S2888      H2889   1.406       .  S
C2893      C2894   1.413       .  A
C2893      C2898   1.413       .  A
C2894      C2895   1.410       .  A
C2894      H2903   1.084       .  S
C2895      C2896   1.412       .  A
C2895      S2899   1.802       .  S
C2896      C2897   1.406       .  A
C2897      C2898   1.397       .  A
C2897      H2904   1.084       .  S
C2898      S2900   1.803       .  S
S2899      H2902   1.407       .  S
S2900      H2901   1.407   1_545  S
C2905      C2906   1.404       .  A
C2905      C2910   1.411       .  A
C2906      C2907   1.396       .  A
C2906      H2915   1.084       .  S
C2907      C2908   1.411       .  A
C2907      S2911   1.802       .  S
C2908      C2909   1.408       .  A
C2909      C2910   1.400       .  A
C2909      H2916   1.084       .  S
C2910      S2912   1.804       .  S
S2911      H2914   1.407       .  S
S2912      H2913   1.405       .  S
C2917      C2918   1.403       .  A
C2917      C2922   1.413       .  A
C2918      C2919   1.395       .  A
C2918      H2927   1.083       .  S
C2919      C2920   1.410       .  A
C2919      S2923   1.809       .  S
C2920      C2921   1.403       .  A
C2921      C2922   1.404       .  A
C2921      H2928   1.083       .  S
C2922      S2924   1.807       .  S
S2923      H2926   1.407       .  S
S2924      H2925   1.407       .  S
C2929      C2930   1.413       .  A
C2929      C2934   1.415       .  A
C2930      C2931   1.407       .  A
C2930      H2939   1.084       .  S
C2931      C2932   1.413       .  A
C2931      S2935   1.802       .  S
C2932      C2933   1.407       .  A
C2933      C2934   1.396       .  A
C2933      H2940   1.084       .  S
C2934      S2936   1.802       .  S
S2935      H2938   1.407       .  S
S2936      H2937   1.405       .  S
C2941      C2942   1.400       .  A
C2941      C2946   1.415       .  A
C2942      C2943   1.398       .  A
C2942      H2951   1.084   1_545  S
C2943      C2944   1.418       .  A
C2943      S2947   1.804       .  S
C2944      C2945   1.402       .  A
C2945      C2946   1.397       .  A
C2945      H2952   1.084       .  S
C2946      S2948   1.805       .  S
S2947      H2950   1.408       .  S
S2948      H2949   1.407       .  S
C2953      C2954   1.401       .  A
C2953      C2958   1.419       .  A
C2954      C2955   1.397       .  A
C2954      H2963   1.084       .  S
C2955      C2956   1.417       .  A
C2955      S2959   1.805       .  S
C2956      C2957   1.401       .  A
C2957      C2958   1.403       .  A
C2957      H2964   1.084       .  S
C2958      S2960   1.803       .  S
S2959      H2962   1.405       .  S
S2960      H2961   1.406       .  S
C2965      C2966   1.408       .  A
C2965      C2970   1.416       .  A
C2966      C2967   1.410       .  A
C2966      H2975   1.083       .  S
C2967      C2968   1.415       .  A
C2967      S2971   1.807       .  S
C2968      C2969   1.407       .  A
C2969      C2970   1.407       .  A
C2969      H2976   1.083       .  S
C2970      S2972   1.809       .  S
S2971      H2974   1.407       .  S
S2972      H2973   1.407       .  S
C2977      C2978   1.406       .  A
C2977      C2982   1.414       .  A
C2978      C2979   1.405       .  A
C2978      H2987   1.083       .  S
C2979      C2980   1.412       .  A
C2979      S2983   1.807       .  S
C2980      C2981   1.403       .  A
C2981      C2982   1.402       .  A
C2981      H2988   1.084       .  S
C2982      S2984   1.801       .  S
S2983      H2986   1.406       .  S
S2984      H2985   1.407       .  S
C2989      C2990   1.406       .  A
C2989      C2994   1.416       .  A
C2990      C2991   1.408       .  A
C2990      H2999   1.083       .  S
C2991      C2992   1.414       .  A
C2991      S2995   1.806       .  S
C2992      C2993   1.403       .  A
C2993      C2994   1.404       .  A
C2993      H3000   1.083       .  S
C2994      S2996   1.810       .  S
S2995      H2998   1.407       .  S
S2996      H2997   1.406       .  S
C3001      C3002   1.411   1_455  A
C3001      C3006   1.413       .  A
C3002      C3003   1.406       .  A
C3002      H3011   1.084       .  S
C3003      C3004   1.416       .  A
C3003      S3007   1.801       .  S
C3004      C3005   1.411   1_655  A
C3005      C3006   1.401       .  A
C3005      H3012   1.083       .  S
C3006      S3008   1.801       .  S
S3007      H3010   1.406       .  S
S3008      H3009   1.407       .  S
C3013      C3014   1.411       .  A
C3013      C3018   1.412       .  A
C3014      C3015   1.402       .  A
C3014      H3023   1.084       .  S
C3015      C3016   1.411       .  A
C3015      S3019   1.804       .  S
C3016      C3017   1.406       .  A
C3017      C3018   1.395       .  A
C3017      H3024   1.084       .  S
C3018      S3020   1.801       .  S
S3019      H3022   1.406       .  S
S3020      H3021   1.407       .  S
C3025      C3026   1.403       .  A
C3025      C3030   1.416       .  A
C3026      C3027   1.408       .  A
C3026      H3035   1.084       .  S
C3027      C3028   1.421       .  A
C3027      S3031   1.803       .  S
C3028      C3029   1.400       .  A
C3029      C3030   1.395       .  A
C3029      H3036   1.084       .  S
C3030      S3032   1.802       .  S
S3031      H3034   1.406       .  S
S3032      H3033   1.405       .  S
C3037      C3038   1.407       .  A
C3037      C3042   1.416       .  A
C3038      C3039   1.402       .  A
C3038      H3047   1.084       .  S
C3039      C3040   1.415       .  A
C3039      S3043   1.803       .  S
C3040      C3041   1.405       .  A
C3041      C3042   1.404       .  A
C3041      H3048   1.084       .  S
C3042      S3044   1.802   1_565  S
S3043      H3046   1.406       .  S
S3044      H3045   1.408       .  S
C3049      C3050   1.407       .  A
C3049      C3054   1.418   1_565  A
C3050      C3051   1.405       .  A
C3050      H3059   1.084       .  S
C3051      C3052   1.416       .  A
C3051      S3055   1.804       .  S
C3052      C3053   1.404   1_565  A
C3053      C3054   1.401       .  A
C3053      H3060   1.084       .  S
C3054      S3056   1.804       .  S
S3055      H3058   1.408       .  S
S3056      H3057   1.407   1_545  S
C3061      C3062   1.401       .  A
C3061      C3066   1.418       .  A
C3062      C3063   1.398       .  A
C3062      H3071   1.084       .  S
C3063      C3064   1.416       .  A
C3063      S3067   1.807       .  S
C3064      C3065   1.401       .  A
C3065      C3066   1.404       .  A
C3065      H3072   1.084       .  S
C3066      S3068   1.803       .  S
S3067      H3070   1.406       .  S
S3068      H3069   1.407       .  S
C3073      C3074   1.401       .  A
C3073      C3078   1.411       .  A
C3074      C3075   1.404       .  A
C3074      H3083   1.083       .  S
C3075      C3076   1.418       .  A
C3075      S3079   1.809       .  S
C3076      C3077   1.402       .  A
C3077      C3078   1.400       .  A
C3077      H3084   1.083       .  S
C3078      S3080   1.808       .  S
S3079      H3082   1.407       .  S
S3080      H3081   1.407       .  S
C3085      C3086   1.403       .  A
C3085      C3090   1.417       .  A
C3086      C3087   1.408       .  A
C3086      H3095   1.084       .  S
C3087      C3088   1.420       .  A
C3087      S3091   1.803       .  S
C3088      C3089   1.402       .  A
C3089      C3090   1.400       .  A
C3089      H3096   1.084       .  S
C3090      S3092   1.804       .  S
S3091      H3094   1.407       .  S
S3092      H3093   1.406       .  S
C3097      C3098   1.402       .  A
C3097      C3102   1.414       .  A
C3098      C3099   1.396       .  A
C3098      H3107   1.084       .  S
C3099      C3100   1.413       .  A
C3099      S3103   1.802       .  S
C3100      C3101   1.406       .  A
C3101      C3102   1.402       .  A
C3101      H3108   1.084       .  S
C3102      S3104   1.805       .  S
S3103      H3106   1.408       .  S
S3104      H3105   1.407       .  S
C3109      C3110   1.406       .  A
C3109      C3114   1.411       .  A
C3110      C3111   1.396       .  A
C3110      H3119   1.084       .  S
C3111      C3112   1.413       .  A
C3111      S3115   1.802       .  S
C3112      C3113   1.412       .  A
C3113      C3114   1.405       .  A
C3113      H3120   1.084       .  S
C3114      S3116   1.802       .  S
S3115      H3118   1.405       .  S
S3116      H3117   1.406       .  S
C3121      C3122   1.403       .  A
C3121      C3126   1.414       .  A
C3122      C3123   1.399       .  A
C3122      H3131   1.084       .  S
C3123      C3124   1.413       .  A
C3123      S3127   1.806       .  S
C3124      C3125   1.402       .  A
C3125      C3126   1.397       .  A
C3125      H3132   1.084       .  S
C3126      S3128   1.804       .  S
S3127      H3130   1.406       .  S
S3128      H3129   1.408       .  S
C3133      C3134   1.407       .  A
C3133      C3138   1.415       .  A
C3134      C3135   1.406       .  A
C3134      H3143   1.084       .  S
C3135      C3136   1.418       .  A
C3135      S3139   1.802       .  S
C3136      C3137   1.405       .  A
C3137      C3138   1.397       .  A
C3137      H3144   1.082       .  S
C3138      S3140   1.799       .  S
S3139      H3142   1.407       .  S
S3140      H3141   1.407       .  S
C3145      C3146   1.405       .  A
C3145      C3150   1.417       .  A
C3146      C3147   1.407       .  A
C3146      H3155   1.084       .  S
C3147      C3148   1.419       .  A
C3147      S3151   1.805       .  S
C3148      C3149   1.400       .  A
C3149      C3150   1.399       .  A
C3149      H3156   1.084       .  S
C3150      S3152   1.802       .  S
S3151      H3154   1.403       .  S
S3152      H3153   1.407       .  S
C3157      C3158   1.401       .  A
C3157      C3162   1.413       .  A
C3158      C3159   1.396       .  A
C3158      H3167   1.085       .  S
C3159      C3160   1.411       .  A
C3159      S3163   1.804       .  S
C3160      C3161   1.404       .  A
C3161      C3162   1.403       .  A
C3161      H3168   1.084       .  S
C3162      S3164   1.804       .  S
S3163      H3166   1.407       .  S
S3164      H3165   1.404       .  S
C3169      C3170   1.403       .  A
C3169      C3174   1.419       .  A
C3170      C3171   1.396       .  A
C3170      H3179   1.084       .  S
C3171      C3172   1.416       .  A
C3171      S3175   1.807       .  S
C3172      C3173   1.401       .  A
C3173      C3174   1.406       .  A
C3173      H3180   1.083       .  S
C3174      S3176   1.806       .  S
S3175      H3178   1.404       .  S
S3176      H3177   1.407       .  S
C3181      C3182   1.400       .  A
C3181      C3186   1.411       .  A
C3182      C3183   1.395       .  A
C3182      H3191   1.084       .  S
C3183      C3184   1.413       .  A
C3183      S3187   1.804       .  S
C3184      C3185   1.404       .  A
C3185      C3186   1.401       .  A
C3185      H3192   1.084       .  S
C3186      S3188   1.797       .  S
S3187      H3190   1.406       .  S
S3188      H3189   1.407       .  S
C3193      C3194   1.405       .  A
C3193      C3198   1.415       .  A
C3194      C3195   1.401       .  A
C3194      H3203   1.084       .  S
C3195      C3196   1.414       .  A
C3195      S3199   1.803       .  S
C3196      C3197   1.407       .  A
C3197      C3198   1.399       .  A
C3197      H3204   1.084       .  S
C3198      S3200   1.804       .  S
S3199      H3202   1.407       .  S
S3200      H3201   1.407       .  S
C3205      C3206   1.408       .  A
C3205      C3210   1.415       .  A
C3206      C3207   1.408       .  A
C3206      H3215   1.084   1_455  S
C3207      C3208   1.417       .  A
C3207      S3211   1.802   1_455  S
C3208      C3209   1.404       .  A
C3209      C3210   1.403       .  A
C3209      H3216   1.084       .  S
C3210      S3212   1.798       .  S
S3211      H3214   1.407   1_655  S
S3212      H3213   1.407       .  S
C3217      C3218   1.406       .  A
C3217      C3222   1.413       .  A
C3218      C3219   1.405       .  A
C3218      H3227   1.083       .  S
C3219      C3220   1.413       .  A
C3219      S3223   1.807       .  S
C3220      C3221   1.404       .  A
C3221      C3222   1.400       .  A
C3221      H3228   1.083       .  S
C3222      S3224   1.809       .  S
S3223      H3226   1.407       .  S
S3224      H3225   1.406       .  S
C3229      C3230   1.405       .  A
C3229      C3234   1.411       .  A
C3230      C3231   1.392       .  A
C3230      H3239   1.084       .  S
C3231      C3232   1.412       .  A
C3231      S3235   1.802       .  S
C3232      C3233   1.412       .  A
C3233      C3234   1.406       .  A
C3233      H3240   1.084       .  S
C3234      S3236   1.803       .  S
S3235      H3238   1.406       .  S
S3236      H3237   1.407       .  S
C3241      C3242   1.410       .  A
C3241      C3246   1.414       .  A
C3242      C3243   1.400       .  A
C3242      H3251   1.084       .  S
C3243      C3244   1.411       .  A
C3243      S3247   1.805   1_655  S
C3244      C3245   1.404       .  A
C3245      C3246   1.394       .  A
C3245      H3252   1.084       .  S
C3246      S3248   1.803       .  S
S3247      H3250   1.406       .  S
S3248      H3249   1.406       .  S
C3253      C3254   1.408       .  A
C3253      C3258   1.416       .  A
C3254      C3255   1.400       .  A
C3254      H3263   1.084       .  S
C3255      C3256   1.414       .  A
C3255      S3259   1.801       .  S
C3256      C3257   1.405       .  A
C3257      C3258   1.401       .  A
C3257      H3264   1.084       .  S
C3258      S3260   1.798   1_565  S
S3259      H3262   1.407       .  S
S3260      H3261   1.407       .  S
C3265      C3266   1.404       .  A
C3265      C3270   1.411       .  A
C3266      C3267   1.397       .  A
C3266      H3275   1.084       .  S
C3267      C3268   1.415       .  A
C3267      S3271   1.802       .  S
C3268      C3269   1.408       .  A
C3269      C3270   1.398       .  A
C3269      H3276   1.084       .  S
C3270      S3272   1.804       .  S
S3271      H3274   1.406       .  S
S3272      H3273   1.406       .  S
C3277      C3278   1.404       .  A
C3277      C3282   1.410       .  A
C3278      C3279   1.398       .  A
C3278      H3287   1.083       .  S
C3279      C3280   1.411       .  A
C3279      S3283   1.807       .  S
C3280      C3281   1.411       .  A
C3281      C3282   1.405       .  A
C3281      H3288   1.084       .  S
C3282      S3284   1.803       .  S
S3283      H3286   1.407       .  S
S3284      H3285   1.406       .  S
C3289      C3290   1.411       .  A
C3289      C3294   1.412       .  A
C3290      C3291   1.402       .  A
C3290      H3299   1.084       .  S
C3291      C3292   1.409       .  A
C3291      S3295   1.802       .  S
C3292      C3293   1.410       .  A
C3293      C3294   1.399       .  A
C3293      H3300   1.083       .  S
C3294      S3296   1.803       .  S
S3295      H3298   1.408       .  S
S3296      H3297   1.407       .  S
C3301      C3302   1.403       .  A
C3301      C3306   1.413       .  A
C3302      C3303   1.394       .  A
C3302      H3311   1.084       .  S
C3303      C3304   1.411       .  A
C3303      S3307   1.804       .  S
C3304      C3305   1.400       .  A
C3305      C3306   1.401       .  A
C3305      H3312   1.083       .  S
C3306      S3308   1.805       .  S
S3307      H3310   1.405   1_545  S
S3308      H3309   1.407       .  S
C3313      C3314   1.401       .  A
C3313      C3318   1.414       .  A
C3314      C3315   1.405       .  A
C3314      H3323   1.084       .  S
C3315      C3316   1.419       .  A
C3315      S3319   1.803       .  S
C3316      C3317   1.401       .  A
C3317      C3318   1.398       .  A
C3317      H3324   1.084       .  S
C3318      S3320   1.804       .  S
S3319      H3322   1.406       .  S
S3320      H3321   1.406       .  S
C3325      C3326   1.404       .  A
C3325      C3330   1.413       .  A
C3326      C3327   1.408       .  A
C3326      H3335   1.084       .  S
C3327      C3328   1.417       .  A
C3327      S3331   1.803       .  S
C3328      C3329   1.403       .  A
C3329      C3330   1.401       .  A
C3329      H3336   1.084       .  S
C3330      S3332   1.804       .  S
S3331      H3334   1.406       .  S
S3332      H3333   1.407       .  S
C3337      C3338   1.401       .  A
C3337      C3342   1.413       .  A
C3338      C3339   1.403       .  A
C3338      H3347   1.084   1_545  S
C3339      C3340   1.418       .  A
C3339      S3343   1.801   1_655  S
C3340      C3341   1.401       .  A
C3341      C3342   1.401       .  A
C3341      H3348   1.083       .  S
C3342      S3344   1.809       .  S
S3343      H3346   1.407       .  S
S3344      H3345   1.406       .  S
C3349      C3350   1.404       .  A
C3349      C3354   1.418       .  A
C3350      C3351   1.399       .  A
C3350      H3359   1.080       .  S
C3351      C3352   1.415       .  A
C3351      S3355   1.800       .  S
C3352      C3353   1.408       .  A
C3353      C3354   1.408       .  A
C3353      H3360   1.084       .  S
C3354      S3356   1.801       .  S
S3355      H3358   1.407       .  S
S3356      H3357   1.407       .  S
C3361      C3362   1.408       .  A
C3361      C3366   1.416       .  A
C3362      C3363   1.404       .  A
C3362      H3371   1.083       .  S
C3363      C3364   1.416       .  A
C3363      S3367   1.803       .  S
C3364      C3365   1.410       .  A
C3365      C3366   1.407       .  A
C3365      H3372   1.084       .  S
C3366      S3368   1.803       .  S
S3367      H3370   1.407       .  S
S3368      H3369   1.407       .  S
C3373      C3374   1.400       .  A
C3373      C3378   1.415       .  A
C3374      C3375   1.401       .  A
C3374      H3383   1.083       .  S
C3375      C3376   1.414       .  A
C3375      S3379   1.807       .  S
C3376      C3377   1.404       .  A
C3377      C3378   1.403       .  A
C3377      H3384   1.084       .  S
C3378      S3380   1.806   1_545  S
S3379      H3382   1.407       .  S
S3380      H3381   1.407       .  S
C3385      C3386   1.404       .  A
C3385      C3390   1.413       .  A
C3386      C3387   1.399       .  A
C3386      H3395   1.084       .  S
C3387      C3388   1.411       .  A
C3387      S3391   1.798       .  S
C3388      C3389   1.402       .  A
C3389      C3390   1.396       .  A
C3389      H3396   1.085       .  S
C3390      S3392   1.800       .  S
S3391      H3394   1.407       .  S
S3392      H3393   1.407       .  S
C3397      C3398   1.400       .  A
C3397      C3402   1.416       .  A
C3398      C3399   1.395       .  A
C3398      H3407   1.084       .  S
C3399      C3400   1.415       .  A
C3399      S3403   1.806   1_545  S
C3400      C3401   1.402       .  A
C3401      C3402   1.407       .  A
C3401      H3408   1.083       .  S
C3402      S3404   1.807       .  S
S3403      H3406   1.407       .  S
S3404      H3405   1.407       .  S
C3409      C3410   1.405       .  A
C3409      C3414   1.411       .  A
C3410      C3411   1.405       .  A
C3410      H3419   1.084       .  S
C3411      C3412   1.416       .  A
C3411      S3415   1.800       .  S
C3412      C3413   1.404       .  A
C3413      C3414   1.393       .  A
C3413      H3420   1.084       .  S
C3414      S3416   1.803       .  S
S3415      H3418   1.406       .  S
S3416      H3417   1.404       .  S
C3421      C3422   1.408   1_545  A
C3421      C3426   1.417       .  A
C3422      C3423   1.400       .  A
C3422      H3431   1.083       .  S
C3423      C3424   1.413       .  A
C3423      S3427   1.800       .  S
C3424      C3425   1.407       .  A
C3425      C3426   1.408   1_565  A
C3425      H3432   1.083   1_565  S
C3426      S3428   1.807       .  S
S3427      H3430   1.407       .  S
S3428      H3429   1.407       .  S
C3433      C3434   1.403       .  A
C3433      C3438   1.417       .  A
C3434      C3435   1.398       .  A
C3434      H3443   1.084       .  S
C3435      C3436   1.418       .  A
C3435      S3439   1.799       .  S
C3436      C3437   1.404       .  A
C3437      C3438   1.400       .  A
C3437      H3444   1.084       .  S
C3438      S3440   1.800       .  S
S3439      H3442   1.404       .  S
S3440      H3441   1.404       .  S
C3445      C3446   1.400       .  A
C3445      C3450   1.414       .  A
C3446      C3447   1.392       .  A
C3446      H3455   1.079       .  S
C3447      C3448   1.409       .  A
C3447      S3451   1.802       .  S
C3448      C3449   1.405       .  A
C3449      C3450   1.403       .  A
C3449      H3456   1.084       .  S
C3450      S3452   1.802       .  S
S3451      H3454   1.407       .  S
S3452      H3453   1.407       .  S
C3457      C3458   1.407       .  A
C3457      C3462   1.411       .  A
C3458      C3459   1.396       .  A
C3458      H3467   1.085       .  S
C3459      C3460   1.411       .  A
C3459      S3463   1.803       .  S
C3460      C3461   1.411       .  A
C3461      C3462   1.406       .  A
C3461      H3468   1.084       .  S
C3462      S3464   1.802       .  S
S3463      H3466   1.407       .  S
S3464      H3465   1.406       .  S
C3469      C3470   1.404       .  A
C3469      C3474   1.411       .  A
C3470      C3471   1.402       .  A
C3470      H3479   1.084       .  S
C3471      C3472   1.412       .  A
C3471      S3475   1.804       .  S
C3472      C3473   1.402       .  A
C3473      C3474   1.403       .  A
C3473      H3480   1.083       .  S
C3474      S3476   1.806   1_455  S
S3475      H3478   1.405       .  S
S3476      H3477   1.407   1_655  S
C3481      C3482   1.407       .  A
C3481      C3486   1.413       .  A
C3482      C3483   1.407       .  A
C3482      H3491   1.084       .  S
C3483      C3484   1.416       .  A
C3483      S3487   1.802       .  S
C3484      C3485   1.407       .  A
C3485      C3486   1.399       .  A
C3485      H3492   1.084       .  S
C3486      S3488   1.801       .  S
S3487      H3490   1.407       .  S
S3488      H3489   1.407       .  S
C3493      C3494   1.402       .  A
C3493      C3498   1.417       .  A
C3494      C3495   1.400       .  A
C3494      H3503   1.083       .  S
C3495      C3496   1.415       .  A
C3495      S3499   1.810       .  S
C3496      C3497   1.402       .  A
C3497      C3498   1.404       .  A
C3497      H3504   1.084       .  S
C3498      S3500   1.803       .  S
S3499      H3502   1.406       .  S
S3500      H3501   1.407       .  S
C3505      C3506   1.404       .  A
C3505      C3510   1.410       .  A
C3506      C3507   1.402       .  A
C3506      H3515   1.084       .  S
C3507      C3508   1.414       .  A
C3507      S3511   1.803       .  S
C3508      C3509   1.402       .  A
C3509      C3510   1.393       .  A
C3509      H3516   1.084       .  S
C3510      S3512   1.801       .  S
S3511      H3514   1.407       .  S
S3512      H3513   1.405       .  S
C3517      C3518   1.397       .  A
C3517      C3522   1.419       .  A
C3518      C3519   1.395       .  A
C3518      H3527   1.084       .  S
C3519      C3520   1.418       .  A
C3519      S3523   1.798       .  S
C3520      C3521   1.401       .  A
C3521      C3522   1.402       .  A
C3521      H3528   1.084       .  S
C3522      S3524   1.800       .  S
S3523      H3526   1.405       .  S
S3524      H3525   1.404       .  S
C3529      C3530   1.407       .  A
C3529      C3534   1.413       .  A
C3530      C3531   1.405       .  A
C3530      H3539   1.084       .  S
C3531      C3532   1.417       .  A
C3531      S3535   1.800   1_655  S
C3532      C3533   1.406       .  A
C3533      C3534   1.398       .  A
C3533      H3540   1.082       .  S
C3534      S3536   1.801       .  S
S3535      H3538   1.406       .  S
S3536      H3537   1.408       .  S
C3541      C3542   1.405       .  A
C3541      C3546   1.418       .  A
C3542      C3543   1.397       .  A
C3542      H3551   1.084       .  S
C3543      C3544   1.414       .  A
C3543      S3547   1.804       .  S
C3544      C3545   1.401       .  A
C3545      C3546   1.400       .  A
C3545      H3552   1.084       .  S
C3546      S3548   1.797       .  S
S3547      H3550   1.407       .  S
S3548      H3549   1.408   1_565  S
C3553      C3554   1.410       .  A
C3553      C3558   1.410       .  A
C3554      C3555   1.407       .  A
C3554      H3563   1.084       .  S
C3555      C3556   1.412       .  A
C3555      S3559   1.801       .  S
C3556      C3557   1.405       .  A
C3557      C3558   1.394       .  A
C3557      H3564   1.085       .  S
C3558      S3560   1.802       .  S
S3559      H3562   1.406       .  S
S3560      H3561   1.408       .  S
C3565      C3566   1.405       .  A
C3565      C3570   1.412       .  A
C3566      C3567   1.398       .  A
C3566      H3575   1.084       .  S
C3567      C3568   1.415       .  A
C3567      S3571   1.801       .  S
C3568      C3569   1.408       .  A
C3569      C3570   1.400       .  A
C3569      H3576   1.084       .  S
C3570      S3572   1.804       .  S
S3571      H3574   1.407       .  S
S3572      H3573   1.407       .  S
C3577      C3578   1.407       .  A
C3577      C3582   1.409       .  A
C3578      C3579   1.400       .  A
C3578      H3587   1.084       .  S
C3579      C3580   1.413       .  A
C3579      S3583   1.804       .  S
C3580      C3581   1.409       .  A
C3581      C3582   1.398       .  A
C3581      H3588   1.084       .  S
C3582      S3584   1.803       .  S
S3583      H3586   1.408       .  S
S3584      H3585   1.407       .  S
C3589      C3590   1.405   1_655  A
C3589      C3594   1.415       .  A
C3590      C3591   1.400       .  A
C3590      H3599   1.084       .  S
C3591      C3592   1.413       .  A
C3591      S3595   1.802       .  S
C3592      C3593   1.405   1_455  A
C3593      C3594   1.403       .  A
C3593      H3600   1.084       .  S
C3594      S3596   1.803       .  S
S3595      H3598   1.407       .  S
S3596      H3597   1.407       .  S
C3601      C3602   1.405       .  A
C3601      C3606   1.415       .  A
C3602      C3603   1.398       .  A
C3602      H3611   1.084       .  S
C3603      C3604   1.414       .  A
C3603      S3607   1.801       .  S
C3604      C3605   1.410       .  A
C3605      C3606   1.404       .  A
C3605      H3612   1.081       .  S
C3606      S3608   1.804       .  S
S3607      H3610   1.407       .  S
S3608      H3609   1.408       .  S
C3613      C3614   1.403       .  A
C3613      C3618   1.419       .  A
C3614      C3615   1.404       .  A
C3614      H3623   1.084   1_455  S
C3615      C3616   1.417       .  A
C3615      S3619   1.806       .  S
C3616      C3617   1.399       .  A
C3617      C3618   1.399       .  A
C3617      H3624   1.084       .  S
C3618      S3620   1.803       .  S
S3619      H3622   1.406       .  S
S3620      H3621   1.407       .  S
C3625      C3626   1.404       .  A
C3625      C3630   1.410       .  A
C3626      C3627   1.399       .  A
C3626      H3635   1.084       .  S
C3627      C3628   1.414       .  A
C3627      S3631   1.803       .  S
C3628      C3629   1.406       .  A
C3629      C3630   1.398       .  A
C3629      H3636   1.084       .  S
C3630      S3632   1.800       .  S
S3631      H3634   1.407       .  S
S3632      H3633   1.406       .  S
C3637      C3638   1.403       .  A
C3637      C3642   1.414       .  A
C3638      C3639   1.411       .  A
C3638      H3647   1.083       .  S
C3639      C3640   1.417       .  A
C3639      S3643   1.807       .  S
C3640      C3641   1.404       .  A
C3641      C3642   1.401       .  A
C3641      H3648   1.084       .  S
C3642      S3644   1.805       .  S
S3643      H3646   1.407       .  S
S3644      H3645   1.407       .  S
C3649      C3650   1.408       .  A
C3649      C3654   1.416       .  A
C3650      C3651   1.406       .  A
C3650      H3659   1.084       .  S
C3651      C3652   1.415       .  A
C3651      S3655   1.803       .  S
C3652      C3653   1.407       .  A
C3653      C3654   1.404       .  A
C3653      H3660   1.083       .  S
C3654      S3656   1.807       .  S
S3655      H3658   1.408       .  S
S3656      H3657   1.407       .  S
C3661      C3662   1.406       .  A
C3661      C3666   1.414       .  A
C3662      C3663   1.401       .  A
C3662      H3671   1.084       .  S
C3663      C3664   1.417       .  A
C3663      S3667   1.805       .  S
C3664      C3665   1.406   1_545  A
C3665      C3666   1.403   1_565  A
C3665      H3672   1.084       .  S
C3666      S3668   1.798   1_545  S
S3667      H3670   1.407       .  S
S3668      H3669   1.407       .  S
