geometry optimzed in LAMMPS
_audit_creation_date              2020-12-01 
_audit_creation_method            'lammps2cif' 
_symmetry_space_group_name_H-M    'P1' 
_symmetry_Int_Tables_number       1 
_symmetry_cell_setting            triclinic 
loop_ 
_symmetry_equiv_pos_as_xyz 
  x,y,z 
_cell_length_a                    76.18739826 
_cell_length_b                    76.20658200177951 
_cell_length_c                    30.628522432308607 
_cell_angle_alpha                 90.29976194482946 
_cell_angle_beta                  89.89326414399405 
_cell_angle_gamma                 90.04355796726037 
loop_ 
_atom_site_label 
_atom_site_type_symbol 
_atom_site_fract_x 
_atom_site_fract_y 
_atom_site_fract_z 
_atom_site_charge 
O1          O  0.86760822  0.27409759  0.44761362    -0.85000
O2          O  0.83978921  0.25489064  0.41998352    -0.82000
C3          C  0.84611304  0.24476943  0.39079099     0.98500
O4          O  0.85480906  0.23138230  0.40118359    -0.82000
O5          O  0.88028475  0.21294114  0.44423606    -0.84700
C6          C  0.89403333  0.22189257  0.43666806     1.03000
O7          O  0.89576259  0.23695749  0.45297893    -0.77500
O8          O  0.88878283  0.26843339  0.49347224    -0.77600
C9          C  0.88256615  0.27747029  0.46265774     1.03000
O10         O  0.85699975  0.27059017  0.53856759    -0.85000
O11         O  0.83029601  0.24913213  0.51159405    -0.82000
C12         C  0.82247178  0.23571602  0.49761597     0.98500
O13         O  0.82991842  0.22557079  0.47040848    -0.82100
O14         O  0.85666524  0.21014813  0.51864680    -0.84700
C15         C  0.87113380  0.20825586  0.53797522     1.03000
O16         O  0.88399984  0.21813693  0.52880881    -0.77500
O17         O  0.87360595  0.24948549  0.56453775    -0.77600
C18         C  0.86472536  0.26320758  0.57031955     1.02900
Cr19       Cr  0.84960965  0.26072776  0.47975936     1.93700
Cr20       Cr  0.85589161  0.22153463  0.46042746     1.93200
Cr21       Cr  0.88390306  0.24314373  0.50793703     1.39100
O22         O  0.86305359  0.24185890  0.48274750    -1.22700
O23         O  0.63877306  0.26845517  0.57692570    -0.85000
O24         O  0.66933662  0.25416205  0.60825466    -0.82000
C25         C  0.66471081  0.24512214  0.64096945     0.98500
O26         O  0.65716143  0.23051884  0.63579683    -0.82000
O27         O  0.63513916  0.20588810  0.59936021    -0.84700
C28         C  0.61979929  0.21200119  0.60334976     1.03000
O29         O  0.61541668  0.22575673  0.58349649    -0.77500
O30         O  0.61810967  0.25644314  0.53692949    -0.77600
C31         C  0.62324321  0.26835599  0.56274054     1.03000
O32         O  0.64973805  0.26149409  0.48813950    -0.85000
O33         O  0.67899596  0.24492097  0.51921400    -0.82000
C34         C  0.68857348  0.23356769  0.53692705     0.98500
O35         O  0.68264311  0.22433085  0.56786317    -0.82100
O36         O  0.65849158  0.20231535  0.52673689    -0.84700
C37         C  0.64469678  0.19823799  0.50623087     1.03000
O38         O  0.63064213  0.20679030  0.51177792    -0.77500
O39         O  0.63603085  0.23731647  0.46912832    -0.77600
C40         C  0.64343152  0.25146593  0.45900755     1.02900
Cr41       Cr  0.65838183  0.25558361  0.54848071     1.93700
Cr42       Cr  0.65761239  0.21723511  0.58023365     1.93200
Cr43       Cr  0.62673418  0.23190680  0.52744156     1.39100
O44         O  0.64754449  0.23496444  0.55209558    -1.22700
O45         O  0.85375932  0.27430766  0.03288196    -0.85000
O46         O  0.83102059  0.29920119  0.00284466    -0.82000
C47         C  0.82475595  0.31283220  0.98592305     0.98500
O48         O  0.83421056  0.32218839  0.96098232    -0.82000
O49         O  0.85977184  0.33626381  0.01545570    -0.84700
C50         C  0.87262378  0.33627355  0.04131868     1.03000
O51         O  0.88426224  0.32442651  0.03942258    -0.77500
O52         O  0.86951028  0.29405566  0.06672251    -0.77600
C53         C  0.85894128  0.28139157  0.06804705     1.03000
O54         O  0.86786814  0.27160153  0.94526975    -0.85000
O55         O  0.84255840  0.29345514  0.91422105    -0.82000
C56         C  0.85115172  0.30228808  0.88655182     0.98500
O57         O  0.86197049  0.31375792  0.89909659    -0.82100
O58         O  0.88629640  0.33082309  0.95102540    -0.84700
C59         C  0.90024988  0.32176027  0.95163573     1.03000
O60         O  0.90016094  0.30650594  0.96739390    -0.77500
O61         O  0.88744473  0.27470117  0.99723342    -0.77600
C62         C  0.88185842  0.26685325  0.96333852     1.02900
Cr63       Cr  0.84996984  0.28597133  0.97448817     1.93700
Cr64       Cr  0.86083458  0.32411524  0.95836146     1.93200
Cr65       Cr  0.88386496  0.30005752  0.01516448     1.39100
O66         O  0.86497847  0.30342046  0.98266710    -1.22700
O67         O  0.66389299  0.28408767  0.98844234    -0.85000
O68         O  0.68447611  0.29712737  0.05609051    -0.82000
C69         C  0.68935619  0.31218928  0.04354860     0.98500
O70         O  0.67841297  0.32454416  0.04090761    -0.82000
O71         O  0.64621238  0.34114661  0.03160833    -0.84700
C72         C  0.64083707  0.33849519  0.99305951     1.03000
O73         O  0.63752031  0.32315761  0.97977733    -0.77500
O74         O  0.63562473  0.28706958  0.97719713    -0.77600
C75         C  0.65064892  0.28242610  0.96396443     1.03000
O76         O  0.63994974  0.26931507  0.05136130    -0.85000
O77         O  0.65828151  0.28531160  0.11747529    -0.82000
C78         C  0.66371519  0.29754751  0.14188233     0.98500
O79         O  0.66790529  0.31224011  0.12590732    -0.82100
O80         O  0.63504449  0.32646905  0.11307927    -0.84700
C81         C  0.62001195  0.32853015  0.09670613     1.03000
O82         O  0.61703680  0.32376128  0.05781751    -0.77500
O83         O  0.61818172  0.28776242  0.06022632    -0.77600
C84         C  0.62425313  0.27244171  0.06263239     1.02900
Cr85       Cr  0.66084049  0.28547349  0.05308732     1.93700
Cr86       Cr  0.65639304  0.32459979  0.07573814     1.93200
Cr87       Cr  0.62865622  0.30539605  0.02091628     1.39100
O88         O  0.64869397  0.30521266  0.04973680    -1.22700
O89         O  0.51032300  0.42436956  0.77255312    -0.85000
O90         O  0.52130455  0.44432906  0.70241515    -0.82000
C91         C  0.53552799  0.45019063  0.71730541     0.98500
O92         O  0.54861797  0.44019344  0.72125306    -0.82000
O93         O  0.56700810  0.40900276  0.73127501    -0.84700
C94         C  0.56469740  0.40278441  0.76894223     1.03000
O95         O  0.54979599  0.39748010  0.78107087    -0.77500
O96         O  0.51400953  0.39629434  0.78573134    -0.77600
C97         C  0.51021627  0.41161799  0.79889478     1.03000
O98         O  0.49515341  0.39986355  0.71270702    -0.85000
O99         O  0.51058257  0.41762285  0.64317269    -0.82000
C100        C  0.52275026  0.42375181  0.61939683     0.98500
O101        O  0.53734937  0.42814825  0.63587875    -0.82100
O102        O  0.55404288  0.39665410  0.64985256    -0.84700
C103        C  0.55571500  0.38134995  0.66486895     1.03000
O104        O  0.54951080  0.37742209  0.70190572    -0.77500
O105        O  0.51319064  0.37798145  0.70239492    -0.77600
C106        C  0.49782817  0.38411912  0.70204810     1.02900
Cr107      Cr  0.51089022  0.42061915  0.70794474     1.93700
Cr108      Cr  0.55017333  0.41786459  0.68672613     1.93200
Cr109      Cr  0.53155018  0.38888681  0.74027747     1.39100
O110        O  0.53099357  0.40902534  0.71153478    -1.22700
O111        O  0.50893864  0.60151250  0.74677079    -0.85000
O112        O  0.52761310  0.58470098  0.81040410    -0.82000
C113        C  0.54298530  0.58252969  0.79538628     0.98500
O114        O  0.55329317  0.59533552  0.79146571    -0.82000
O115        O  0.56370501  0.62942402  0.77756381    -0.84700
C116        C  0.55970258  0.63330362  0.73882146     1.03000
O117        O  0.54383569  0.63420644  0.72729636    -0.77500
O118        O  0.50793711  0.62938107  0.72912641    -0.77600
C119        C  0.50524749  0.61337991  0.71989812     1.03000
O120        O  0.49245192  0.62357571  0.81146464    -0.85000
O121        O  0.51312421  0.60893778  0.87381613    -0.82000
C122        C  0.52663714  0.60550817  0.89573797     0.98500
O123        O  0.54146000  0.60455738  0.87740662    -0.82100
O124        O  0.54900439  0.63917031  0.85961958    -0.84700
C125        C  0.54888188  0.65392304  0.84130342     1.03000
O126        O  0.54198100  0.65577833  0.80399510    -0.77500
O127        O  0.50640780  0.64878377  0.81008807    -0.77600
C128        C  0.49289455  0.63990177  0.81900390     1.02900
Cr129      Cr  0.51191767  0.60588551  0.80990349     1.93700
Cr130      Cr  0.55010451  0.61739155  0.82458110     1.93200
Cr131      Cr  0.52526335  0.64048094  0.77016528     1.39100
O132        O  0.52908341  0.62124538  0.80136133    -1.22700
O133        O  0.50036485  0.41080282  0.17303584    -0.85000
O134        O  0.47828966  0.43601677  0.14560749    -0.82000
C135        C  0.46926513  0.42966498  0.11438179     0.98500
O136        O  0.45681642  0.41916662  0.12144480    -0.82000
O137        O  0.44095930  0.39014695  0.15779454    -0.84700
C138        C  0.45157164  0.37773358  0.14951875     1.03000
O139        O  0.46663017  0.37775952  0.16615833    -0.77500
O140        O  0.49617223  0.38732757  0.21221125    -0.77600
C141        C  0.50521491  0.39586872  0.18505434     1.03000
O142        O  0.49241188  0.41865030  0.26516889    -0.85000
O143        O  0.46880041  0.44300210  0.23684253    -0.82000
C144        C  0.45471948  0.44919203  0.22206578     0.98500
O145        O  0.44607528  0.44074873  0.19362532    -0.82100
O146        O  0.43332883  0.41084007  0.23420368    -0.84700
C147        C  0.43350177  0.39599608  0.25211616     1.03000
O148        O  0.44524125  0.38483610  0.24258313    -0.77500
O149        O  0.47396791  0.39758968  0.28284297    -0.77600
C150        C  0.48527870  0.40877827  0.29354516     1.02900
Cr151      Cr  0.48361531  0.42587438  0.20512194     1.93700
Cr152      Cr  0.44597126  0.41489925  0.17872736     1.93200
Cr153      Cr  0.47023822  0.38859986  0.22397317     1.39100
O154        O  0.46664356  0.40992046  0.20283884    -1.22700
O155        O  0.49908456  0.62635477  0.33196021    -0.85000
O156        O  0.48013401  0.59858562  0.36058248    -0.82000
C157        C  0.47147235  0.60487340  0.39238146     0.98500
O158        O  0.45795807  0.61408919  0.38603574    -0.82000
O159        O  0.43812047  0.64015349  0.34717478    -0.84700
C160        C  0.44733784  0.65390255  0.35335656     1.03000
O161        O  0.46216268  0.65528277  0.33555621    -0.77500
O162        O  0.49239330  0.64810053  0.28878674    -0.77600
C163        C  0.50257722  0.64115777  0.31641734     1.03000
O164        O  0.49237168  0.61673666  0.24168874    -0.85000
O165        O  0.47145912  0.59040280  0.27065445    -0.82000
C166        C  0.45927335  0.58201767  0.28859548     0.98500
O167        O  0.44976522  0.58941363  0.31738541    -0.82100
O168        O  0.43320955  0.61660152  0.27284694    -0.84700
C169        C  0.43096037  0.63109044  0.25401988     1.03000
O170        O  0.44083944  0.64404908  0.26276397    -0.77500
O171        O  0.47055946  0.63352618  0.22086730    -0.77600
C172        C  0.48332691  0.62373449  0.21174441     1.02900
Cr173      Cr  0.48435277  0.60903702  0.30135798     1.93700
Cr174      Cr  0.44612254  0.61555972  0.32892684     1.93200
Cr175      Cr  0.46648120  0.64372248  0.27893714     1.39100
O176        O  0.46572578  0.62275194  0.30322750    -1.22700
O177        O  0.36567022  0.77091476  0.96556487    -0.85000
O178        O  0.34578956  0.75308981  0.90551787    -0.82000
C179        C  0.34054109  0.73993379  0.88402149     0.98500
O180        O  0.33696308  0.72559235  0.90301486    -0.82000
O181        O  0.36919958  0.71121539  0.91847300    -0.84700
C182        C  0.38452418  0.70998987  0.93350987     1.03000
O183        O  0.38796453  0.71597561  0.97110200    -0.77500
O184        O  0.38690055  0.75170421  0.95795434    -0.77600
C185        C  0.38116214  0.76707468  0.95344085     1.03000
O186        O  0.34228509  0.75825566  0.03393634    -0.85000
O187        O  0.32041151  0.74381078  0.97083114    -0.82000
C188        C  0.31576837  0.72955213  0.98849703     0.98500
O189        O  0.32662929  0.71718584  0.99244796    -0.82100
O190        O  0.35837809  0.70049338  0.00563167    -0.84700
C191        C  0.36340068  0.70553868  0.04319332     1.03000
O192        O  0.36811978  0.72113315  0.04970498    -0.77500
O193        O  0.37076537  0.75653293  0.04175874    -0.77600
C194        C  0.35582728  0.76022369  0.05715351     1.02900
Cr195      Cr  0.34437139  0.75508376  0.96952998     1.93700
Cr196      Cr  0.34831071  0.71511852  0.95638151     1.93200
Cr197      Cr  0.37692052  0.73624667  0.00298660     1.39100
O198        O  0.35650389  0.73542267  0.97601916    -1.22700
O199        O  0.13287463  0.77893178  0.05552718    -0.85000
O200        O  0.14943278  0.76430039  0.12562009    -0.82000
C201        C  0.15428390  0.75270142  0.15218442     0.98500
O202        O  0.15842386  0.73753466  0.13856461    -0.82000
O203        O  0.12526864  0.72382556  0.12545127    -0.84700
C204        C  0.11028939  0.72206058  0.10839099     1.03000
O205        O  0.10787673  0.72573386  0.06857787    -0.77500
O206        O  0.11006836  0.76157605  0.06230448    -0.77600
C207        C  0.11672991  0.77669381  0.06391414     1.03000
O208        O  0.15740320  0.76131558  0.99791882    -0.85000
O209        O  0.17640043  0.74977335  0.06908815    -0.82000
C210        C  0.18051070  0.73453249  0.05582029     0.98500
O211        O  0.16912211  0.72251667  0.05503300    -0.82100
O212        O  0.13675675  0.70619260  0.04810068    -0.84700
C213        C  0.13240245  0.70759433  0.00847530     1.03000
O214        O  0.12963927  0.72248656  0.99221256    -0.77500
O215        O  0.12942890  0.75819913  0.98253213    -0.77600
C216        C  0.14497689  0.76142915  0.97069608     1.02900
Cr217      Cr  0.15311230  0.76213159  0.06193612     1.93700
Cr218      Cr  0.14702477  0.72395884  0.08954557     1.93200
Cr219      Cr  0.12077884  0.74206857  0.02884388     1.39100
O220        O  0.14023045  0.74273467  0.06017271    -1.22700
O221        O  0.33582466  0.78173982  0.53130554    -0.85000
O222        O  0.31824743  0.79807486  0.46429930    -0.82000
C223        C  0.31613265  0.81254783  0.48383722     0.98500
O224        O  0.32907336  0.82260079  0.48926545    -0.82000
O225        O  0.36323839  0.83410041  0.49864447    -0.84700
C226        C  0.36833384  0.82959191  0.53624740     1.03000
O227        O  0.37036660  0.81366280  0.54551907    -0.77500
O228        O  0.36395651  0.77844091  0.54507047    -0.77600
C229        C  0.34802102  0.77805273  0.55745061     1.03000
O230        O  0.35648346  0.76245455  0.46907226    -0.85000
O231        O  0.34241856  0.78269844  0.40372300    -0.82000
C232        C  0.33880671  0.79612815  0.38151123     0.98500
O233        O  0.33725466  0.81103141  0.39988145    -0.82100
O234        O  0.37153419  0.82018727  0.41446016    -0.84700
C235        C  0.38697444  0.81892803  0.42881656     1.03000
O236        O  0.39001101  0.81138519  0.46495265    -0.77500
O237        O  0.38179392  0.77561867  0.46110378    -0.77600
C238        C  0.37246350  0.76196484  0.45808833     1.02900
Cr239      Cr  0.33944783  0.78246689  0.46756425     1.93700
Cr240      Cr  0.35051938  0.82037521  0.45226074     1.93200
Cr241      Cr  0.37507067  0.79507446  0.50173319     1.39100
O242        O  0.35522879  0.79934322  0.47354312    -1.22700
O243        O  0.15753582  0.79005976  0.50651619    -0.85000
O244        O  0.17750070  0.80343698  0.57317361    -0.82000
C245        C  0.18187539  0.81828656  0.55809837     0.98500
O246        O  0.17085003  0.83058938  0.55648721    -0.82000
O247        O  0.13902897  0.84744242  0.54890388    -0.84700
C248        C  0.13449682  0.84520088  0.50967339     1.03000
O249        O  0.13119066  0.83001935  0.49534497    -0.77500
O250        O  0.12983562  0.79402358  0.49008722    -0.77600
C251        C  0.14527064  0.78967062  0.47906560     1.03000
O252        O  0.13285801  0.77515184  0.56856967    -0.85000
O253        O  0.15143211  0.79142591  0.63452750    -0.82000
C254        C  0.15774440  0.80349065  0.65805231     0.98500
O255        O  0.16081188  0.81846536  0.64218070    -0.82100
O256        O  0.12762050  0.83232092  0.62885271    -0.84700
C257        C  0.11265288  0.83431753  0.61188963     1.03000
O258        O  0.10984790  0.82952324  0.57282504    -0.77500
O259        O  0.11087675  0.79366261  0.57204636    -0.77600
C260        C  0.11687153  0.77842064  0.57704433     1.02900
Cr261      Cr  0.15383703  0.79151629  0.57035163     1.93700
Cr262      Cr  0.14909017  0.83064283  0.59210811     1.93200
Cr263      Cr  0.12198956  0.81168813  0.53495545     1.39100
O264        O  0.14157450  0.81124402  0.56591542    -1.22700
O265        O  0.00953997  0.40921695  0.85836705    -0.85000
O266        O  0.02857699  0.43804228  0.88715089    -0.82000
C267        C  0.03831943  0.43062739  0.91465277     0.98500
O268        O  0.05148247  0.42191398  0.90237142    -0.82000
O269        O  0.07120076  0.39968231  0.85195248    -0.84700
C270        C  0.06403915  0.38476433  0.85450650     1.03000
O271        O  0.04910585  0.38206415  0.83783861    -0.77500
O272        O  0.01573186  0.39020704  0.80647831    -0.77600
C273        C  0.00631724  0.39501261  0.83843238     1.03000
O274        O  0.01048004  0.42293785  0.77161659    -0.85000
O275        O  0.03207080  0.44970642  0.79873222    -0.82000
C276        C  0.04570038  0.45735637  0.81249116     0.98500
O277        O  0.05607025  0.44949742  0.83807122    -0.82100
O278        O  0.07298806  0.42539945  0.78510370    -0.84700
C279        C  0.07453902  0.41223986  0.76027538     1.03000
O280        O  0.06431812  0.39920707  0.76362678    -0.77500
O281        O  0.03173507  0.40938507  0.73691034    -0.77600
C282        C  0.01748467  0.41776972  0.73654847     1.02900
Cr283      Cr  0.02174744  0.42898040  0.82839391     1.93700
Cr284      Cr  0.06127808  0.42364226  0.84272985     1.93200
Cr285      Cr  0.04025497  0.39674563  0.78879517     1.39100
O286        O  0.04111720  0.41641981  0.81983176    -1.22700
O287        O  0.00026039  0.63633331  0.69109753    -0.85000
O288        O  0.01747483  0.60733902  0.66319177    -0.82000
C289        C  0.02600552  0.61370334  0.63146693     0.98500
O290        O  0.03997063  0.62218137  0.63827898    -0.82000
O291        O  0.06194625  0.64597101  0.67844041    -0.84700
C292        C  0.05494641  0.66094959  0.67435682     1.03000
O293        O  0.04031523  0.66421083  0.69213174    -0.77500
O294        O  0.00803909  0.65818158  0.73369211    -0.77600
C295        C  0.99758314  0.65143142  0.70614996     1.03000
O296        O  0.00502224  0.62642487  0.78158615    -0.85000
O297        O  0.02504896  0.59910090  0.75349611    -0.82000
C298        C  0.03682510  0.58998180  0.73591384     0.98500
O299        O  0.04665672  0.59663374  0.70680516    -0.82100
O300        O  0.06569324  0.62282696  0.75080249    -0.84700
C301        C  0.06800943  0.63689648  0.77209159     1.03000
O302        O  0.05827424  0.65014489  0.76611957    -0.77500
O303        O  0.02733033  0.64213401  0.80417394    -0.77600
C304        C  0.01390270  0.63314849  0.81233804     1.02900
Cr305      Cr  0.01350659  0.61830864  0.72231872     1.93700
Cr306      Cr  0.05207294  0.62246367  0.69553996     1.93200
Cr307      Cr  0.03334686  0.65203636  0.74679858     1.39100
O308        O  0.03298780  0.63100355  0.72160402    -1.22700
O309        O  0.99118940  0.43434302  0.25513155    -0.85000
O310        O  0.98127828  0.45225190  0.32939438    -0.82000
C311        C  0.96565301  0.45613525  0.32000739     0.98500
O312        O  0.95397839  0.44440768  0.32002855    -0.82000
O313        O  0.93952180  0.41117546  0.31117228    -0.84700
C314        C  0.94083492  0.40655577  0.27152818     1.03000
O315        O  0.95565802  0.40409007  0.25419213    -0.77500
O316        O  0.99119932  0.40615285  0.24047645    -0.77600
C317        C  0.99359506  0.42189804  0.22868208     1.03000
O318        O  0.01203090  0.41114312  0.30723304    -0.85000
O319        O  0.99862176  0.42675485  0.38003411    -0.82000
C320        C  0.98759206  0.43058485  0.40908085     0.98500
O321        O  0.97154349  0.43308817  0.39988156    -0.82100
O322        O  0.95868204  0.39997098  0.38650201    -0.84700
C323        C  0.95722642  0.38498600  0.36931104     1.03000
O324        O  0.96089356  0.38266825  0.32937020    -0.77500
O325        O  0.99669859  0.38753233  0.32112498    -0.77600
C326        C  0.01129334  0.39532722  0.31919115     1.02900
Cr327      Cr  0.99432064  0.43011327  0.31796529     1.93700
Cr328      Cr  0.95731024  0.42186089  0.35187038     1.93200
Cr329      Cr  0.97609879  0.39655188  0.28862870     1.39100
O330        O  0.97581794  0.41612806  0.31967047    -1.22700
O331        O  0.99847972  0.62292765  0.26445030    -0.85000
O332        O  0.97722191  0.59571688  0.23949763    -0.82000
C333        C  0.96337976  0.58766814  0.22917154     0.98500
O334        O  0.95151805  0.59527441  0.20761860    -0.82000
O335        O  0.93688441  0.61930434  0.26574642    -0.84700
C336        C  0.93612966  0.63279477  0.28978767     1.03000
O337        O  0.94492643  0.64635942  0.28050309    -0.77500
O338        O  0.97815741  0.63679611  0.30190968    -0.77600
C339        C  0.99223159  0.62813611  0.30067820     1.03000
O340        O  0.99602991  0.63657591  0.17608696    -0.85000
O341        O  0.97722769  0.60812007  0.15006950    -0.82000
C342        C  0.96548598  0.61468072  0.12582002     0.98500
O343        O  0.95234133  0.62226229  0.14229308    -0.82100
O344        O  0.93488694  0.64461322  0.19716426    -0.84700
C345        C  0.94199047  0.65932641  0.19018337     1.03000
O346        O  0.95757882  0.66229472  0.20214809    -0.77500
O347        O  0.99189149  0.65575584  0.22842973    -0.77600
C348        C  0.99956609  0.65108049  0.19364588     1.02900
Cr349      Cr  0.98574477  0.61674386  0.20857286     1.93700
Cr350      Cr  0.94557198  0.62088517  0.20452361     1.93200
Cr351      Cr  0.96807112  0.64875847  0.25078407     1.39100
O352        O  0.96647502  0.62874373  0.22134043    -1.22700
O353        O  0.51123964  0.13251528  0.20580435    -0.85000
O354        O  0.52742945  0.11486394  0.13860262    -0.82000
C355        C  0.53935271  0.10883803  0.11430918     0.98500
O356        O  0.55419588  0.10503742  0.13000998    -0.82000
O357        O  0.56778836  0.13796419  0.14567472    -0.84700
C358        C  0.56973480  0.15282973  0.16323985     1.03000
O359        O  0.56561128  0.15529877  0.20293995    -0.77500
O360        O  0.52977587  0.15452802  0.20468864    -0.77600
C361        C  0.51449013  0.14861904  0.19944071     1.03000
O362        O  0.52551763  0.10732174  0.26561272    -0.85000
O363        O  0.53933317  0.08798803  0.19820796    -0.82000
C364        C  0.55435439  0.08322026  0.21162650     0.98500
O365        O  0.56677165  0.09412574  0.21414349    -0.82100
O366        O  0.58359406  0.12615552  0.22478137    -0.84700
C367        C  0.58139481  0.13021961  0.26448233     1.03000
O368        O  0.56619183  0.13308731  0.27907078    -0.77500
O369        O  0.53023102  0.13473162  0.28475187    -0.77600
C370        C  0.52469447  0.11946763  0.29350396     1.02900
Cr371      Cr  0.52744453  0.11158479  0.20239953     1.93700
Cr372      Cr  0.56656320  0.11631651  0.18088086     1.93200
Cr373      Cr  0.54788145  0.14287857  0.24044187     1.39100
O374        O  0.54725997  0.12358825  0.20809670    -1.22700
O375        O  0.49638719  0.89907790  0.30848528    -0.85000
O376        O  0.51438727  0.91686656  0.37298028    -0.82000
C377        C  0.52683490  0.92377981  0.39402296     0.98500
O378        O  0.54046943  0.92893995  0.37440337    -0.82000
O379        O  0.55536560  0.89693968  0.35561457    -0.84700
C380        C  0.55703106  0.88194546  0.33841635     1.03000
O381        O  0.55164521  0.87901936  0.29990652    -0.77500
O382        O  0.51589557  0.87808073  0.30581397    -0.77600
C383        C  0.50060880  0.88323946  0.31467271     1.03000
O384        O  0.50747178  0.92521584  0.24721279    -0.85000
O385        O  0.52217295  0.94473590  0.31297264    -0.82000
C386        C  0.53599306  0.95083585  0.29573855     0.98500
O387        O  0.54896430  0.94092347  0.28806747    -0.82100
O388        O  0.56747511  0.90962526  0.27343892    -0.84700
C389        C  0.56439546  0.90451347  0.23491533     1.03000
O390        O  0.54896718  0.90072073  0.22347308    -0.77500
O391        O  0.51295674  0.89817446  0.22573766    -0.77600
C392        C  0.50677263  0.91334008  0.21852629     1.02900
Cr393      Cr  0.51167039  0.92063132  0.30958070     1.93700
Cr394      Cr  0.55155119  0.91850939  0.32085649     1.93200
Cr395      Cr  0.53225565  0.89055274  0.26617392     1.39100
O396        O  0.53183684  0.90990837  0.29846512    -1.22700
O397        O  0.49648289  0.11806166  0.77557935    -0.85000
O398        O  0.47974261  0.09110722  0.73316038    -0.82000
C399        C  0.46782307  0.08348182  0.71175505     0.98500
O400        O  0.45978627  0.09150535  0.68176236    -0.82000
O401        O  0.43908579  0.11540406  0.72584774    -0.84700
C402        C  0.43489095  0.12893212  0.74721598     1.03000
O403        O  0.44415908  0.14264414  0.74480916    -0.77500
O404        O  0.47218977  0.13174275  0.79433316    -0.77600
C405        C  0.48571179  0.12319617  0.80458553     1.03000
O406        O  0.50669831  0.13230980  0.69173274    -0.85000
O407        O  0.49207074  0.10417335  0.64977978    -0.82000
C408        C  0.48437623  0.11094760  0.61735554     0.98500
O409        O  0.46991905  0.11880031  0.62198380    -0.82100
O410        O  0.44663948  0.14165792  0.65960487    -0.84700
C411        C  0.45491699  0.15613569  0.65989818     1.03000
O412        O  0.46800871  0.15822411  0.68445109    -0.77500
O413        O  0.49566218  0.15082214  0.73912429    -0.77600
C414        C  0.50741964  0.14675082  0.71187961     1.02900
Cr415      Cr  0.49226383  0.11230795  0.71227152     1.93700
Cr416      Cr  0.45513413  0.11732525  0.67478971     1.93200
Cr417      Cr  0.47022036  0.14433423  0.73841601     1.39100
O418        O  0.47260823  0.12458923  0.70840220    -1.22700
O419        O  0.49747400  0.90985576  0.74345693    -0.85000
O420        O  0.48128776  0.93988771  0.77013723    -0.82000
C421        C  0.46982828  0.95010212  0.78526386     0.98500
O422        O  0.45835796  0.94450081  0.81185899    -0.82000
O423        O  0.43770547  0.91985748  0.76692596    -0.84700
C424        C  0.43415771  0.90564782  0.74734589     1.03000
O425        O  0.44197565  0.89156752  0.75718601    -0.77500
O426        O  0.47384946  0.89602319  0.72069429    -0.77600
C427        C  0.48808552  0.90367849  0.71284377     1.03000
O428        O  0.50023432  0.89974183  0.83529153    -0.85000
O429        O  0.48613734  0.93067828  0.86056080    -0.82000
C430        C  0.47596423  0.92587505  0.89094347     0.98500
O431        O  0.46102688  0.91958600  0.88250036    -0.82100
O432        O  0.43773021  0.89745899  0.84207444    -0.84700
C433        C  0.44373105  0.88225234  0.84940911     1.03000
O434        O  0.45832997  0.87763982  0.83369206    -0.77500
O435        O  0.49064441  0.87892881  0.79223412    -0.77600
C436        C  0.50088453  0.88416371  0.82194590     1.02900
Cr437      Cr  0.48967282  0.91919900  0.80215989     1.93700
Cr438      Cr  0.45014789  0.91966358  0.82402865     1.93200
Cr439      Cr  0.46645512  0.88769822  0.77797274     1.39100
O440        O  0.46877214  0.90894447  0.80111040    -1.22700
O441        O  0.86325529  0.77040895  0.08721585    -0.85000
O442        O  0.83381086  0.78459199  0.12432917    -0.82000
C443        C  0.83923022  0.79382546  0.15622321     0.98500
O444        O  0.84670868  0.80837896  0.14972835    -0.82000
O445        O  0.86827021  0.83225774  0.11012935    -0.84700
C446        C  0.88331130  0.82536308  0.11388150     1.03000
O447        O  0.88715616  0.81170891  0.09237223    -0.77500
O448        O  0.88264904  0.78154005  0.04242335    -0.77600
C449        C  0.87828194  0.77011707  0.07002198     1.03000
O450        O  0.84978250  0.77761850  0.99994688    -0.85000
O451        O  0.82142275  0.79368870  0.03738003    -0.82000
C452        C  0.81258917  0.80501222  0.05783745     0.98500
O453        O  0.81981736  0.81451245  0.08653715    -0.82100
O454        O  0.84308580  0.83551056  0.03958832    -0.84700
C455        C  0.85676650  0.83998606  0.01910692     1.03000
O456        O  0.87101311  0.83185251  0.02503625    -0.77500
O457        O  0.86357299  0.80165987  0.98000717    -0.77600
C458        C  0.85521159  0.78791185  0.97034771     1.02900
Cr459      Cr  0.84296877  0.78312349  0.06235181     1.93700
Cr460      Cr  0.84511196  0.82135258  0.09408780     1.93200
Cr461      Cr  0.87451098  0.80636778  0.03716888     1.39100
O462        O  0.85419120  0.80349961  0.06463145    -1.22700
O463        O  0.63375095  0.76490216  0.92023641    -0.85000
O464        O  0.66234323  0.78332459  0.88854527    -0.82000
C465        C  0.65536658  0.79275840  0.85972845     0.98500
O466        O  0.64551925  0.80529665  0.87048755    -0.82000
O467        O  0.62147870  0.82421727  0.91659277    -0.84700
C468        C  0.60715831  0.81578064  0.91745566     1.03000
O469        O  0.60560019  0.80196474  0.93961237    -0.77500
O470        O  0.61575307  0.77067375  0.97439419    -0.77600
C471        C  0.61954563  0.76206317  0.94031135     1.03000
O472        O  0.64791505  0.76738164  0.00676812    -0.85000
O473        O  0.67396060  0.78921611  0.97576030    -0.82000
C474        C  0.68105113  0.80266870  0.95946942     0.98500
O475        O  0.67236902  0.81286688  0.93495051    -0.82100
O476        O  0.64700301  0.83064432  0.98366529    -0.84700
C477        C  0.63396878  0.83200878  0.00892180     1.03000
O478        O  0.62208125  0.82046738  0.00916991    -0.77500
O479        O  0.63531302  0.78944500  0.04035660    -0.77600
C480        C  0.64348931  0.77509191  0.04164484     1.02900
Cr481      Cr  0.65343110  0.77773150  0.94840251     1.93700
Cr482      Cr  0.64621927  0.81665607  0.92864441     1.93200
Cr483      Cr  0.62127657  0.79572862  0.98841286     1.39100
O484        O  0.64034289  0.79685467  0.95528055    -1.22700
O485        O  0.84502256  0.76210777  0.50905090    -0.85000
O486        O  0.82107693  0.73818043  0.54070046    -0.82000
C487        C  0.81513734  0.72450988  0.55829229     0.98500
O488        O  0.82458653  0.71581191  0.58423819    -0.82000
O489        O  0.85344030  0.70303585  0.53662482    -0.84700
C490        C  0.86842293  0.70263164  0.51902531     1.03000
O491        O  0.87941875  0.71477240  0.52650349    -0.77500
O492        O  0.86565550  0.74380997  0.48705272    -0.77600
C493        C  0.85456678  0.75557008  0.47889335     1.03000
O494        O  0.85476556  0.76966958  0.59973841    -0.85000
O495        O  0.83031170  0.74748424  0.63082495    -0.82000
C496        C  0.83763561  0.73848675  0.66060170     0.98500
O497        O  0.84813494  0.72628934  0.65126028    -0.82100
O498        O  0.87589928  0.71054587  0.61045971    -0.84700
C499        C  0.88817773  0.72138156  0.61813693     1.03000
O500        O  0.88792746  0.73631436  0.60098675    -0.77500
O501        O  0.87741492  0.76563304  0.55710830    -0.77600
C502        C  0.86968591  0.77423964  0.58670507     1.02900
Cr503      Cr  0.83900544  0.75304023  0.56970379     1.93700
Cr504      Cr  0.85075547  0.71552169  0.59339616     1.93200
Cr505      Cr  0.87589759  0.73983933  0.54482660     1.39100
O506        O  0.85506698  0.73618796  0.56898369    -1.22700
O507        O  0.65218742  0.76069076  0.51383051    -0.85000
O508        O  0.67602435  0.73571829  0.48615437    -0.82000
C509        C  0.68250197  0.72252078  0.46714883     0.98500
O510        O  0.67367608  0.71438288  0.43843182    -0.82000
O511        O  0.64510584  0.70018811  0.48376577    -0.84700
C512        C  0.63082323  0.70033943  0.50480165     1.03000
O513        O  0.61957851  0.71240621  0.49926630    -0.77500
O514        O  0.63213874  0.74216662  0.53669082    -0.77600
C515        C  0.64283938  0.75435656  0.54413191     1.03000
O516        O  0.64336213  0.76707240  0.42377810    -0.85000
O517        O  0.66863244  0.74449993  0.39616682    -0.82000
C518        C  0.66027577  0.73751544  0.36490891     0.98500
O519        O  0.64937071  0.72540055  0.37198630    -0.82100
O520        O  0.62249506  0.70750011  0.41232254    -0.84700
C521        C  0.60955812  0.71762159  0.40652263     1.03000
O522        O  0.60949220  0.73263619  0.42366886    -0.77500
O523        O  0.62009284  0.76289222  0.46464069    -0.77600
C524        C  0.62832008  0.77169999  0.43627832     1.02900
Cr525      Cr  0.65883358  0.75065843  0.45523015     1.93700
Cr526      Cr  0.64744177  0.71343363  0.42863659     1.93200
Cr527      Cr  0.62197158  0.73724595  0.47909665     1.39100
O528        O  0.64278608  0.73377257  0.45491419    -1.22700
O529        O  0.36077369  0.25868320  0.56667023    -0.85000
O530        O  0.33828534  0.28023830  0.61056691    -0.82000
C531        C  0.34748684  0.28704043  0.64087772     0.98500
O532        O  0.35853709  0.29887491  0.63233796    -0.82000
O533        O  0.38407583  0.31677070  0.58715492    -0.84700
C534        C  0.39677133  0.30603266  0.58576199     1.03000
O535        O  0.39539346  0.29193487  0.56452948    -0.77500
O536        O  0.38128879  0.26433028  0.51856939    -0.77600
C537        C  0.37463828  0.25438118  0.54709200     1.03000
O538        O  0.34702246  0.26980437  0.48271916    -0.85000
O539        O  0.32601734  0.29330738  0.52634081    -0.82000
C540        C  0.32108047  0.30597364  0.54979185     0.98500
O541        O  0.33160507  0.31286042  0.57690557    -0.82100
O542        O  0.35812085  0.32785104  0.52547744    -0.84700
C543        C  0.37117907  0.32824396  0.50001410     1.03000
O544        O  0.38246192  0.31605234  0.50013928    -0.77500
O545        O  0.36597934  0.28933917  0.45940506    -0.77600
C546        C  0.35424746  0.27817619  0.45174217     1.02900
Cr547      Cr  0.34427313  0.27680545  0.54643355     1.93700
Cr548      Cr  0.35819786  0.31260604  0.57792220     1.93200
Cr549      Cr  0.37977175  0.29055560  0.51331284     1.39100
O550        O  0.36072033  0.29327664  0.54580008    -1.22700
O551        O  0.13910107  0.26792889  0.46195911    -0.85000
O552        O  0.16391234  0.28676357  0.41757027    -0.82000
C553        C  0.15477356  0.29560751  0.39096067     0.98500
O554        O  0.14603760  0.30860663  0.40373016    -0.82000
O555        O  0.12411930  0.32798077  0.45427778    -0.84700
C556        C  0.11041512  0.31853518  0.45608628     1.03000
O557        O  0.11046164  0.30437276  0.47712435    -0.77500
O558        O  0.12268019  0.27454176  0.51824241    -0.77600
C559        C  0.12622842  0.26455442  0.48632863     1.03000
O560        O  0.15691973  0.27460787  0.54481425    -0.85000
O561        O  0.18022947  0.29567624  0.50068274    -0.82000
C562        C  0.18601660  0.30888801  0.48068523     0.98500
O563        O  0.17589903  0.31791265  0.45685107    -0.82100
O564        O  0.15275911  0.33515480  0.51265883    -0.84700
C565        C  0.14014336  0.33724647  0.53879371     1.03000
O566        O  0.12787867  0.32604101  0.54080810    -0.77500
O567        O  0.14296978  0.29687945  0.57465675    -0.77600
C568        C  0.15260283  0.28359985  0.57822410     1.02900
Cr569      Cr  0.15902982  0.28267594  0.48182514     1.93700
Cr570      Cr  0.14953409  0.32088532  0.45918418     1.93200
Cr571      Cr  0.12735637  0.30048172  0.52492252     1.39100
O572        O  0.14541926  0.30137876  0.48877814    -1.22700
O573        O  0.35967582  0.25606330  0.99437220    -0.85000
O574        O  0.33301017  0.23474135  0.02123689    -0.82000
C575        C  0.32477276  0.22208127  0.03755903     0.98500
O576        O  0.33246410  0.21188051  0.06356106    -0.82000
O577        O  0.35847687  0.19691202  0.01197162    -0.84700
C578        C  0.37270055  0.19510892  0.99136482     1.03000
O579        O  0.38621923  0.20389232  0.00212806    -0.77500
O580        O  0.37828404  0.23624028  0.96974418    -0.77600
C581        C  0.36847777  0.24924879  0.96334182     1.03000
O582        O  0.36993194  0.25997669  0.08554438    -0.85000
O583        O  0.34251723  0.24031906  0.11282954    -0.82000
C584        C  0.34850561  0.22994370  0.14166027     0.98500
O585        O  0.35764138  0.21680531  0.13096626    -0.82100
O586        O  0.38206218  0.19738258  0.08542460    -0.84700
C587        C  0.39620678  0.20523428  0.09482236     1.03000
O588        O  0.39880083  0.22063160  0.08133166    -0.77500
O589        O  0.39261779  0.25352814  0.04440767    -0.77600
C590        C  0.38509553  0.26339782  0.07205453     1.02900
Cr591      Cr  0.35236004  0.24629864  0.05312981     1.93700
Cr592      Cr  0.35826983  0.20728552  0.07119169     1.93200
Cr593      Cr  0.38731421  0.22852044  0.02661134     1.39100
O594        O  0.36600893  0.22753589  0.05029282    -1.22700
O595        O  0.16611487  0.26071249  0.03518219    -0.85000
O596        O  0.18474746  0.24298374  0.97265858    -0.82000
C597        C  0.18938540  0.22912538  0.99228795     0.98500
O598        O  0.17814849  0.21766807  0.00221190    -0.82000
O599        O  0.14566269  0.20272626  0.02164729    -0.84700
C600        C  0.14139855  0.20863173  0.05899131     1.03000
O601        O  0.13862561  0.22471424  0.06454276    -0.77500
O602        O  0.13824266  0.25985192  0.05263736    -0.77600
C603        C  0.15406284  0.26302733  0.06272150     1.03000
O604        O  0.14097668  0.27248159  0.97020611    -0.85000
O605        O  0.15803627  0.25129881  0.91025632    -0.82000
C606        C  0.16349914  0.23756037  0.89148604     0.98500
O607        O  0.16684326  0.22386865  0.91331936    -0.82100
O608        O  0.13429979  0.21212759  0.93533311    -0.84700
C609        C  0.11935085  0.21183777  0.95267586     1.03000
O610        O  0.11666051  0.21917462  0.98929341    -0.77500
O611        O  0.11874907  0.25429351  0.97231981    -0.77600
C612        C  0.12494617  0.26905778  0.96264795     1.02900
Cr613      Cr  0.16152545  0.25557458  0.97306628     1.93700
Cr614      Cr  0.15580359  0.21568276  0.96960271     1.93200
Cr615      Cr  0.12948224  0.23936867  0.01733409     1.39100
O616        O  0.14892909  0.23684547  0.98658952    -1.22700
O617        O  0.00842892  0.13593128  0.83244497    -0.85000
O618        O  0.98925489  0.11670256  0.89196523    -0.82000
C619        C  0.97573978  0.11108240  0.91152559     0.98500
O620        O  0.96175114  0.10780190  0.89051895    -0.82000
O621        O  0.94829569  0.14021769  0.87378668    -0.84700
C622        C  0.94797204  0.15563589  0.85933881     1.03000
O623        O  0.95435148  0.15902851  0.82220523    -0.77500
O624        O  0.98962334  0.15752485  0.83795461    -0.77600
C625        C  0.00467987  0.15139073  0.84463241     1.03000
O626        O  0.99641047  0.11248445  0.76352105    -0.85000
O627        O  0.98090868  0.09158060  0.82574839    -0.82000
C628        C  0.96699409  0.08668041  0.80702055     0.98500
O629        O  0.95451407  0.09731522  0.80114506    -0.82100
O630        O  0.93850204  0.12976019  0.78568845    -0.84700
C631        C  0.94407604  0.13504120  0.74886354     1.03000
O632        O  0.95990376  0.13913415  0.74368876    -0.77500
O633        O  0.99515372  0.14086720  0.75420489    -0.77600
C634        C  0.99833608  0.12571110  0.73927081     1.02900
Cr635      Cr  0.99238505  0.11505865  0.82771489     1.93700
Cr636      Cr  0.95228496  0.11932351  0.83625758     1.93200
Cr637      Cr  0.97462214  0.14762905  0.79163340     1.39100
O638        O  0.97301172  0.12728903  0.81868988    -1.22700
O639        O  0.99655044  0.90827425  0.72341696    -0.85000
O640        O  0.97603020  0.92401879  0.66177180    -0.82000
C641        C  0.96246860  0.92812112  0.64074490     0.98500
O642        O  0.94791639  0.93049739  0.65998155    -0.82000
O643        O  0.93777227  0.89729271  0.68037110    -0.84700
C644        C  0.93823936  0.88234056  0.69746443     1.03000
O645        O  0.94448369  0.88035245  0.73535545    -0.77500
O646        O  0.97980995  0.88490725  0.72143744    -0.77600
C647        C  0.99436051  0.89216927  0.71420669     1.03000
O648        O  0.98178600  0.93222341  0.78733161    -0.85000
O649        O  0.96441544  0.94992551  0.72283062    -0.82000
C650        C  0.94979980  0.95367602  0.74029520     0.98500
O651        O  0.93867932  0.94178446  0.74760604    -0.82100
O652        O  0.92566773  0.90858451  0.76576825    -0.84700
C653        C  0.93103352  0.90499065  0.80390308     1.03000
O654        O  0.94708570  0.90251926  0.81110128    -0.77500
O655        O  0.98267120  0.90415415  0.80225407    -0.77600
C656        C  0.98547073  0.91997640  0.81303347     1.02900
Cr657      Cr  0.97834736  0.92761350  0.72466418     1.93700
Cr658      Cr  0.93905323  0.91918377  0.71506832     1.93200
Cr659      Cr  0.96328814  0.89440735  0.76527433     1.39100
O660        O  0.96016556  0.91377535  0.73502275    -1.22700
O661        O  0.00751697  0.11635825  0.26633720    -0.85000
O662        O  0.02983863  0.09171253  0.29902765    -0.82000
C663        C  0.04359818  0.08508559  0.31434218     0.98500
O664        O  0.05314393  0.09389565  0.34008253    -0.82000
O665        O  0.06684497  0.12042485  0.28858069    -0.84700
C666        C  0.06813308  0.13466310  0.26813562     1.03000
O667        O  0.05777607  0.14722477  0.27660226    -0.77500
O668        O  0.02768784  0.13446155  0.24166724    -0.77600
C669        C  0.01538391  0.12383376  0.23476971     1.03000
O670        O  0.00166182  0.12857990  0.35608270    -0.85000
O671        O  0.02257817  0.10319924  0.38903997    -0.82000
C672        C  0.03289498  0.10982345  0.41742218     0.98500
O673        O  0.04572186  0.11925106  0.40627929    -0.82100
O674        O  0.06286471  0.14518274  0.36055120    -0.84700
C675        C  0.05363901  0.15894382  0.36556999     1.03000
O676        O  0.03823941  0.15949483  0.35072508    -0.77500
O677        O  0.00704188  0.14978368  0.31017093    -0.77600
C678        C  0.99747043  0.14294005  0.33926633     1.02900
Cr679      Cr  0.01682889  0.11109199  0.32738407     1.93700
Cr680      Cr  0.05553146  0.12011225  0.34700898     1.93200
Cr681      Cr  0.03273342  0.14613917  0.29714312     1.39100
O682        O  0.03488910  0.12575770  0.32421060    -1.22700
O683        O  0.00759612  0.93093104  0.29149784    -0.85000
O684        O  0.01547474  0.94624110  0.21319634    -0.82000
C685        C  0.03000128  0.95348226  0.22173853     0.98500
O686        O  0.04362699  0.94427851  0.22630866    -0.82000
O687        O  0.06395761  0.91552706  0.24763822    -0.84700
C688        C  0.06293234  0.91309903  0.28841963     1.03000
O689        O  0.04844325  0.90932419  0.30613625    -0.77500
O690        O  0.01273070  0.90456267  0.31652396    -0.77600
C691        C  0.00778018  0.92024910  0.32256798     1.03000
O692        O  0.99298077  0.90073432  0.24613360    -0.85000
O693        O  0.00466026  0.91466554  0.17012472    -0.82000
C694        C  0.01520952  0.91943053  0.14096601     0.98500
O695        O  0.03026658  0.92542955  0.15058057    -0.82100
O696        O  0.04903600  0.89615980  0.17647670    -0.84700
C697        C  0.05332148  0.88326847  0.19995652     1.03000
O698        O  0.04934810  0.88299417  0.24000721    -0.77500
O699        O  0.01330944  0.88049558  0.24340277    -0.77600
C700        C  0.99745832  0.88491682  0.23958506     1.02900
Cr701      Cr  0.00674323  0.92244607  0.23073828     1.93700
Cr702      Cr  0.04535331  0.91991756  0.20266525     1.93200
Cr703      Cr  0.03066082  0.89560748  0.27372359     1.39100
O704        O  0.02767089  0.91262905  0.23554074    -1.22700
C705        C  0.04380653  0.00134605  0.24803624     0.19100
C706        C  0.05361544  0.00895883  0.28199293    -0.19000
C707        C  0.05256130  0.02701739  0.29080431    -0.11300
C708        C  0.04181043  0.03794467  0.26524418     0.21300
C709        C  0.03257240  0.03037665  0.23021254    -0.20600
C710        C  0.03357951  0.01235875  0.22155700    -0.11500
C711        C  0.03887278  0.05694473  0.27514272    -0.15600
C712        C  0.04833550  0.06666687  0.30360868    -0.29500
C713        C  0.04426874  0.98192511  0.24147138    -0.03800
C714        C  0.03051460  0.97286177  0.22534563    -0.40300
H715        H  0.06169651  0.00080378  0.30271244     0.12500
H716        H  0.05978287  0.03213162  0.31838640     0.12100
H717        H  0.02429880  0.03842612  0.20968472     0.11500
H718        H  0.02629990  0.00712047  0.19414055     0.11800
H719        H  0.02803311  0.06323060  0.25827214     0.14500
H720        H  0.05963126  0.06112919  0.32000812     0.13300
H721        H  0.05567164  0.97478924  0.25311063     0.11000
H722        H  0.01857774  0.97977966  0.21666330     0.13000
C723        C  0.01344471  0.92027277  0.01641269     0.19100
C724        C  0.01798080  0.93236265  0.98399882    -0.19000
C725        C  0.01236012  0.92980830  0.94103693    -0.11300
C726        C  0.00223629  0.91498112  0.93000570     0.21300
C727        C  0.99818348  0.90267041  0.96225458    -0.20600
C728        C  0.00371750  0.90525324  0.00502966    -0.11500
C729        C  0.99592259  0.91153646  0.88527893    -0.15600
C730        C  0.99328118  0.92414666  0.85561541    -0.29500
C731        C  0.01925859  0.92325566  0.06176609    -0.03800
C732        C  0.00947411  0.91792393  0.09557191    -0.40300
H733        H  0.02572487  0.94385404  0.99203933     0.12500
H734        H  0.01619844  0.93928447  0.91664726     0.12100
H735        H  0.99062789  0.89103035  0.95436336     0.11500
H736        H  0.00057897  0.89532092  0.02895423     0.11800
H737        H  0.99224882  0.89810234  0.87738367     0.14500
H738        H  0.99592088  0.93780816  0.86328116     0.13300
H739        H  0.03151774  0.93019149  0.06741240     0.11000
H740        H  0.99667664  0.91204671  0.08994587     0.13000
C741        C  0.99072188  0.92022485  0.43965011     0.19100
C742        C  0.97643983  0.91201390  0.45987382    -0.19000
C743        C  0.97192976  0.91631262  0.50276735    -0.11300
C744        C  0.98193276  0.92864732  0.52627420     0.21300
C745        C  0.99621170  0.93686038  0.50596744    -0.20600
C746        C  0.00049127  0.93282881  0.46279557    -0.11500
C747        C  0.97927927  0.93129547  0.57347307    -0.15600
C748        C  0.96359991  0.92967888  0.59309864    -0.29500
C749        C  0.99597044  0.91463493  0.39546236    -0.03800
C750        C  0.00188614  0.92607378  0.36581788    -0.40300
H751        H  0.96892059  0.90210454  0.44261262     0.12500
H752        H  0.96120575  0.90933759  0.51809593     0.12100
H753        H  0.00429500  0.94611639  0.52389077     0.11500
H754        H  0.01184973  0.93901474  0.44815771     0.11800
H755        H  0.99090679  0.93381201  0.59310206     0.14500
H756        H  0.95165788  0.92844129  0.57400947     0.13300
H757        H  0.99442264  0.90087549  0.38669787     0.11000
H758        H  0.00200294  0.94004747  0.37306754     0.13000
C759        C  0.99119331  0.10915008  0.03229850     0.19100
C760        C  0.00768857  0.10702219  0.05179224    -0.19000
C761        C  0.00948710  0.10708726  0.09715367    -0.11300
C762        C  0.99483140  0.10961854  0.12451891     0.21300
C763        C  0.97816360  0.11096721  0.10530209    -0.20600
C764        C  0.97633339  0.11084767  0.05959251    -0.11500
C765        C  0.99709365  0.11176123  0.17272503    -0.15600
C766        C  0.01102985  0.12061246  0.18838796    -0.29500
C767        C  0.99045872  0.11072652  0.98374783    -0.03800
C768        C  0.97592678  0.10825972  0.95947434    -0.40300
H769        H  0.01933866  0.10555166  0.03176615     0.12500
H770        H  0.02247253  0.10541808  0.11079824     0.12100
H771        H  0.96665253  0.11285979  0.12559562     0.11500
H772        H  0.96340240  0.11277577  0.04595714     0.11800
H773        H  0.98702815  0.10698684  0.19484988     0.14500
H774        H  0.02008109  0.12647942  0.16518227     0.13300
H775        H  0.00263977  0.11401357  0.96713763     0.11000
H776        H  0.96375028  0.10423638  0.97487937     0.13000
C777        C  0.00922469  0.10784312  0.62423297     0.19100
C778        C  0.02237660  0.09735121  0.60539649    -0.19000
C779        C  0.02431527  0.09643382  0.55984245    -0.11300
C780        C  0.01278229  0.10562432  0.53229155     0.21300
C781        C  0.99922599  0.11554011  0.55118590    -0.20600
C782        C  0.99757450  0.11681660  0.59661612    -0.11500
C783        C  0.01475320  0.10542231  0.48388744    -0.15600
C784        C  0.03057772  0.10646560  0.46461229    -0.29500
C785        C  0.00725258  0.10886645  0.67257017    -0.03800
C786        C  0.00339861  0.12411324  0.69273485    -0.40300
H787        H  0.03133436  0.09010960  0.62597212     0.12500
H788        H  0.03471223  0.08842505  0.54617068     0.12100
H789        H  0.99011024  0.12263531  0.53071268     0.11500
H790        H  0.98700711  0.12463705  0.61017072     0.11800
H791        H  0.00302705  0.10666301  0.46398599     0.14500
H792        H  0.04224333  0.10718236  0.48490026     0.13300
H793        H  0.00884535  0.09697699  0.69156837     0.11000
H794        H  0.00285766  0.13604448  0.67347600     0.13000
C795        C  0.95418448  0.00427980  0.75065240     0.19100
C796        C  0.96723851  0.01594529  0.73642124    -0.19000
C797        C  0.96612903  0.03384552  0.74562846    -0.11300
C798        C  0.95194302  0.04063016  0.76975407     0.21300
C799        C  0.93849295  0.02916634  0.78272402    -0.20600
C800        C  0.93961464  0.01111859  0.77355554    -0.11500
C801        C  0.95134750  0.05951567  0.78242490    -0.15600
C802        C  0.96615877  0.06822086  0.79254943    -0.29500
C803        C  0.95682027  0.98525151  0.74112892    -0.03800
C804        C  0.94556029  0.97219112  0.75102485    -0.40300
H805        H  0.97850297  0.01117428  0.71828852     0.12500
H806        H  0.97645212  0.04236662  0.73380209     0.12100
H807        H  0.92735986  0.03410705  0.80105504     0.11500
H808        H  0.92919067  0.00270060  0.78504677     0.11800
H809        H  0.93871028  0.06594569  0.78616193     0.14500
H810        H  0.97855336  0.06118100  0.79248890     0.13300
H811        H  0.96902804  0.98178470  0.72482049     0.11000
H812        H  0.93311682  0.97489542  0.76682990     0.13000
C813        C  0.12396523  0.17082690  0.12889647     0.19100
C814        C  0.11158292  0.15765745  0.11936956    -0.19000
C815        C  0.10088393  0.15075929  0.15241772    -0.11300
C816        C  0.10238359  0.15705649  0.19543855     0.21300
C817        C  0.11550416  0.16927943  0.20545755    -0.20600
C818        C  0.12644149  0.17582986  0.17280663    -0.11500
C819        C  0.08907993  0.15306101  0.22909437    -0.15600
C820        C  0.08210225  0.13708923  0.23533208    -0.29500
C821        C  0.13266193  0.18031042  0.09224671    -0.03800
C822        C  0.13807889  0.19705892  0.09644063    -0.40300
H823        H  0.10947968  0.15343415  0.08594756     0.12500
H824        H  0.09071924  0.14142238  0.14385903     0.12100
H825        H  0.11696764  0.17415536  0.23855650     0.11500
H826        H  0.13637943  0.18525316  0.18209891     0.11800
H827        H  0.08513403  0.16380757  0.25046898     0.14500
H828        H  0.08694614  0.12581245  0.21712661     0.13300
H829        H  0.13219730  0.17443552  0.05983845     0.11000
H830        H  0.13718776  0.20365038  0.12782652     0.13000
C831        C  0.07563367  0.18870841  0.92741717     0.19100
C832        C  0.05814177  0.19121912  0.94027933    -0.19000
C833        C  0.04470310  0.18127869  0.92147037    -0.11300
C834        C  0.04856654  0.16854865  0.88943983     0.21300
C835        C  0.06608911  0.16572951  0.87737766    -0.20600
C836        C  0.07951120  0.17567932  0.89609502    -0.11500
C837        C  0.03479986  0.15749823  0.86915489    -0.15600
C838        C  0.01800480  0.16261513  0.86541510    -0.29500
C839        C  0.08952309  0.19936727  0.94862681    -0.03800
C840        C  0.10531256  0.20210919  0.93033090    -0.40300
H841        H  0.05486322  0.20091480  0.96496147     0.12500
H842        H  0.03140901  0.18337122  0.93278169     0.12100
H843        H  0.06940932  0.15577504  0.85337178     0.11500
H844        H  0.09287405  0.17279340  0.88655326     0.11800
H845        H  0.03880343  0.14496795  0.85528377     0.14500
H846        H  0.01391990  0.17549740  0.87668907     0.13300
H847        H  0.08656204  0.20532066  0.98011500     0.11000
H848        H  0.10830161  0.19691208  0.89813943     0.13000
C849        C  0.23996507  0.23503317  0.99584016     0.19100
C850        C  0.24771055  0.21945048  0.01123719    -0.19000
C851        C  0.26602369  0.21806692  0.01498512    -0.11300
C852        C  0.27696845  0.23223861  0.00344380     0.21300
C853        C  0.26915944  0.24763128  0.98781172    -0.20600
C854        C  0.25097063  0.24901539  0.98414705    -0.11500
C855        C  0.29646955  0.23197690  0.00748543    -0.15600
C856        C  0.30578587  0.21976166  0.02904450    -0.29500
C857        C  0.22068610  0.23742210  0.98990357    -0.03800
C858        C  0.20816427  0.22588126  0.00178467    -0.40300
H859        H  0.23983717  0.20821373  0.02003560     0.12500
H860        H  0.27142099  0.20583591  0.02651796     0.12100
H861        H  0.27717655  0.25876877  0.97861861     0.11500
H862        H  0.24547379  0.26114999  0.97199385     0.11800
H863        H  0.30347766  0.24318693  0.99421663     0.14500
H864        H  0.29934162  0.20862058  0.04397731     0.13300
H865        H  0.21656681  0.24951273  0.97428390     0.11000
H866        H  0.21153010  0.21373263  0.01795895     0.13000
C867        C  0.08593604  0.19274474  0.41384828     0.19100
C868        C  0.09448890  0.19498264  0.45403440    -0.19000
C869        C  0.10346615  0.21062255  0.46351496    -0.11300
C870        C  0.10451211  0.22407666  0.43231326     0.21300
C871        C  0.09625169  0.22165475  0.39180258    -0.20600
C872        C  0.08683543  0.20626571  0.38286484    -0.11500
C873        C  0.11500774  0.24025303  0.44012263    -0.15600
C874        C  0.11559132  0.24852593  0.47905337    -0.29500
C875        C  0.07719196  0.17582568  0.40316846    -0.03800
C876        C  0.06135498  0.17522762  0.38386388    -0.40300
H877        H  0.09419498  0.18462371  0.47808976     0.12500
H878        H  0.11005802  0.21195348  0.49464671     0.12100
H879        H  0.09707687  0.23171816  0.36703698     0.11500
H880        H  0.08070863  0.20469203  0.35119262     0.11800
H881        H  0.12182590  0.24596635  0.41241538     0.14500
H882        H  0.10763729  0.24374454  0.50594831     0.13300
H883        H  0.08402201  0.16371838  0.41078384     0.11000
H884        H  0.05419959  0.18738110  0.37884825     0.13000
C885        C  0.16678081  0.25912479  0.68177167     0.19100
C886        C  0.16180970  0.24285650  0.69922324    -0.19000
C887        C  0.16225785  0.24010116  0.74447128    -0.11300
C888        C  0.16784631  0.25360105  0.77280384     0.21300
C889        C  0.17375245  0.26943836  0.75498037    -0.20600
C890        C  0.17343333  0.27211982  0.71002441    -0.11500
C891        C  0.16620290  0.25249496  0.82095339    -0.15600
C892        C  0.16621119  0.23745785  0.84370421    -0.29500
C893        C  0.16364716  0.26293457  0.63485315    -0.03800
C894        C  0.15818404  0.27893099  0.62260934    -0.40300
H895        H  0.15670986  0.23262170  0.67808555     0.12500
H896        H  0.15739397  0.22779805  0.75716780     0.12100
H897        H  0.17825928  0.27997459  0.77606192     0.11500
H898        H  0.17796150  0.28459215  0.69753495     0.11800
H899        H  0.16510450  0.26486115  0.83863725     0.14500
H900        H  0.16838809  0.22497105  0.82735689     0.13300
H901        H  0.16404695  0.25227540  0.61117753     0.11000
H902        H  0.15619345  0.28901886  0.64732066     0.13000
C903        C  0.15972331  0.27495941  0.27700820     0.19100
C904        C  0.17351579  0.27318797  0.24696404    -0.19000
C905        C  0.16995661  0.27056450  0.20249024    -0.11300
C906        C  0.15247572  0.26948084  0.18754511     0.21300
C907        C  0.13879393  0.27052536  0.21810167    -0.20600
C908        C  0.14234328  0.27327054  0.26223837    -0.11500
C909        C  0.14779137  0.26629280  0.14107228    -0.15600
C910        C  0.15871244  0.26891977  0.10718210    -0.29500
C911        C  0.16333864  0.27908615  0.32352393    -0.03800
C912        C  0.15347136  0.29106321  0.34436416    -0.40300
H913        H  0.18700600  0.27422181  0.25776881     0.12500
H914        H  0.18091993  0.26917398  0.18028830     0.12100
H915        H  0.12525582  0.26934864  0.20773784     0.11500
H916        H  0.13144587  0.27409170  0.28492464     0.11800
H917        H  0.13471296  0.26120433  0.13456665     0.14500
H918        H  0.17182068  0.27406152  0.11233772     0.13300
H919        H  0.17427138  0.27283205  0.33997880     0.11000
H920        H  0.14350800  0.29808241  0.32604371     0.13000
C921        C  0.35438022  0.27048250  0.85447182     0.19100
C922        C  0.33947509  0.26813857  0.82814172    -0.19000
C923        C  0.33961092  0.27324118  0.78412693    -0.11300
C924        C  0.35463218  0.28109921  0.76573958     0.21300
C925        C  0.36931254  0.28392195  0.79263448    -0.20600
C926        C  0.36926300  0.27857839  0.83630079    -0.11500
C927        C  0.35554957  0.28701870  0.71933754    -0.15600
C928        C  0.34508281  0.28116875  0.68674658    -0.29500
C929        C  0.35420005  0.26445700  0.90074265    -0.03800
C930        C  0.36827821  0.25672104  0.91881426    -0.40300
H931        H  0.32778603  0.26208914  0.84150183     0.12500
H932        H  0.32786671  0.27123737  0.76498365     0.12100
H933        H  0.38098121  0.29016191  0.77967295     0.11500
H934        H  0.38082324  0.28095448  0.85598398     0.11800
H935        H  0.36599113  0.29618304  0.71128959     0.14500
H936        H  0.33504131  0.27142674  0.69316575     0.13300
H937        H  0.34197570  0.26510763  0.91900262     0.11000
H938        H  0.37987057  0.25447836  0.89882009     0.13000
C939        C  0.33719920  0.25839251  0.34337069     0.19100
C940        C  0.33556808  0.24104620  0.32840934    -0.19000
C941        C  0.33511527  0.23730604  0.28360365    -0.11300
C942        C  0.33617877  0.25091792  0.25273623     0.21300
C943        C  0.33655511  0.26833472  0.26778917    -0.20600
C944        C  0.33711714  0.27206450  0.31257079    -0.11500
C945        C  0.33749099  0.24742780  0.20489870    -0.15600
C946        C  0.34487391  0.23274059  0.18861287    -0.29500
C947        C  0.33962778  0.26179349  0.39095585    -0.03800
C948        C  0.34969624  0.27508173  0.40545367    -0.40300
H949        H  0.33525266  0.23030249  0.35142694     0.12500
H950        H  0.33408174  0.22374579  0.27334752     0.12100
H951        H  0.33701273  0.27908814  0.24479623     0.11500
H952        H  0.33767007  0.28564881  0.32294018     0.11800
H953        H  0.33379389  0.25785660  0.18265027     0.14500
H954        H  0.34970868  0.22275952  0.21068302     0.13300
H955        H  0.33444337  0.25236054  0.41413861     0.11000
H956        H  0.35593163  0.28372481  0.38196447     0.13000
C957        C  0.27244006  0.30986770  0.51576455     0.19100
C958        C  0.26336830  0.31282468  0.47660360    -0.19000
C959        C  0.24496412  0.31254195  0.47546892    -0.11300
C960        C  0.23522218  0.30891381  0.51347447     0.21300
C961        C  0.24432033  0.30621798  0.55275028    -0.20600
C962        C  0.26270113  0.30686142  0.55404564    -0.11500
C963        C  0.21583935  0.30607047  0.51249271    -0.15600
C964        C  0.20495463  0.31343301  0.48309723    -0.29500
C965        C  0.29185053  0.30757687  0.51474972    -0.03800
C966        C  0.30249452  0.31174080  0.54838426    -0.40300
H967        H  0.27057031  0.31488656  0.44653585     0.12500
H968        H  0.23848354  0.31425622  0.44438189     0.12100
H969        H  0.23718099  0.30317552  0.58238070     0.11500
H970        H  0.26927593  0.30405700  0.58452831     0.11800
H971        H  0.21031490  0.29746717  0.53716475     0.14500
H972        H  0.20999928  0.32293319  0.45996409     0.13300
H973        H  0.29750294  0.30167820  0.48555866     0.11000
H974        H  0.29726608  0.31875959  0.57648277     0.13000
C975        C  0.73007678  0.72210267  0.51064467     0.19100
C976        C  0.73822766  0.72212894  0.55174120    -0.19000
C977        C  0.75658157  0.72241035  0.55522078    -0.11300
C978        C  0.76715645  0.72312968  0.51754084     0.21300
C979        C  0.75901285  0.72288851  0.47648551    -0.20600
C980        C  0.74069215  0.72216074  0.47299068    -0.11500
C981        C  0.78642905  0.72617810  0.52029674    -0.15600
C982        C  0.79658911  0.71923329  0.55168792    -0.29500
C983        C  0.71067246  0.72420414  0.50773852    -0.03800
C984        C  0.70103263  0.71748048  0.47481192    -0.40300
H985        H  0.73035536  0.72235711  0.58122915     0.12500
H986        H  0.76243548  0.72301004  0.58737963     0.12100
H987        H  0.76685149  0.72367974  0.44702040     0.11500
H988        H  0.73485624  0.72262124  0.44082494     0.11800
H989        H  0.79238188  0.73460500  0.49586984     0.14500
H990        H  0.79096201  0.70988641  0.57443708     0.13300
H991        H  0.70423568  0.73203286  0.53282619     0.11000
H992        H  0.70715908  0.70872024  0.45122466     0.13000
C993        C  0.90333052  0.80896663  0.62333403     0.19100
C994        C  0.91606512  0.81923395  0.60239466    -0.19000
C995        C  0.92409592  0.83320615  0.62444558    -0.11300
C996        C  0.91973210  0.83690002  0.66818155     0.21300
C997        C  0.90766253  0.82609893  0.68975114    -0.20600
C998        C  0.89943240  0.81232916  0.66754179    -0.11500
C999        C  0.92768899  0.85179874  0.69221110    -0.15600
C1000       C  0.93109086  0.86725002  0.67304351    -0.29500
C1001       C  0.89463421  0.79452964  0.59892845    -0.03800
C1002       C  0.87802306  0.78962256  0.60734585    -0.40300
H1003       H  0.91956524  0.81663274  0.56865000     0.12500
H1004       H  0.93378516  0.84100376  0.60744229     0.12100
H1005       H  0.90435480  0.82852772  0.72370252     0.11500
H1006       H  0.89019804  0.80422615  0.68518436     0.11800
H1007       H  0.92962754  0.85042639  0.72721453     0.14500
H1008       H  0.92791255  0.86913707  0.63879712     0.13300
H1009       H  0.90199084  0.78796692  0.57313141     0.11000
H1010       H  0.87037610  0.79669359  0.63170550     0.13000
C1011       C  0.65199783  0.74796782  0.24450815     0.19100
C1012       C  0.64607257  0.73858177  0.20793100    -0.19000
C1013       C  0.64395666  0.74694932  0.16787122    -0.11300
C1014       C  0.64756602  0.76497312  0.16378760     0.21300
C1015       C  0.65323526  0.77443998  0.20047404    -0.20600
C1016       C  0.65554387  0.76602331  0.24047399    -0.11500
C1017       C  0.64468549  0.77429924  0.12215840    -0.15600
C1018       C  0.64721775  0.76643848  0.08337238    -0.29500
C1019       C  0.65261177  0.73896647  0.28718170    -0.03800
C1020       C  0.66280742  0.74430890  0.32045331    -0.40300
H1021       H  0.64286932  0.72477214  0.21051074     0.12500
H1022       H  0.63898852  0.73939728  0.14052807     0.12100
H1023       H  0.65580091  0.78838804  0.19819614     0.11500
H1024       H  0.65947385  0.77383233  0.26838847     0.11800
H1025       H  0.64081005  0.78801459  0.12346803     0.14500
H1026       H  0.65228375  0.75312934  0.08193200     0.13300
H1027       H  0.64379462  0.72790583  0.29179198     0.11000
H1028       H  0.67216426  0.75489412  0.31599895     0.13000
C1029       C  0.65502883  0.78009607  0.64742228     0.19100
C1030       C  0.66993989  0.78017906  0.67414050    -0.19000
C1031       C  0.66870176  0.78580727  0.71762100    -0.11300
C1032       C  0.65256218  0.79175461  0.73457923     0.21300
C1033       C  0.63795792  0.79263572  0.70695381    -0.20600
C1034       C  0.63911696  0.78671365  0.66388451    -0.11500
C1035       C  0.65036266  0.79688540  0.78095176    -0.15600
C1036       C  0.65904675  0.78891713  0.81341394    -0.29500
C1037       C  0.65595227  0.77263057  0.60283083    -0.03800
C1038       C  0.64335066  0.76172648  0.58854135    -0.40300
H1039       H  0.68236907  0.77534299  0.66179634     0.12500
H1040       H  0.68032827  0.78547609  0.73785652     0.12100
H1041       H  0.62547290  0.79739767  0.71913862     0.11500
H1042       H  0.62753063  0.78716395  0.64347840     0.11800
H1043       H  0.64017039  0.80635917  0.78887440     0.14500
H1044       H  0.66840842  0.77857402  0.80606306     0.13300
H1045       H  0.66731903  0.77543045  0.58255225     0.11000
H1046       H  0.63280823  0.75796853  0.61057815     0.13000
C1047       C  0.84158726  0.77704439  0.36950331     0.19100
C1048       C  0.82701189  0.77536089  0.34179032    -0.19000
C1049       C  0.82804281  0.78064527  0.29798065    -0.11300
C1050       C  0.84360087  0.78808871  0.28140368     0.21300
C1051       C  0.85795603  0.79023760  0.30960018    -0.20600
C1052       C  0.85704188  0.78464743  0.35297223    -0.11500
C1053       C  0.84520233  0.79447620  0.23566138    -0.15600
C1054       C  0.83646674  0.78749551  0.20146573    -0.29500
C1055       C  0.84061867  0.77086480  0.41554392    -0.03800
C1056       C  0.85410622  0.76215868  0.43354851    -0.40300
H1057       H  0.81491528  0.76969819  0.35388568     0.12500
H1058       H  0.81657429  0.77921157  0.27748010     0.12100
H1059       H  0.87000743  0.79614193  0.29789514     0.11500
H1060       H  0.86838054  0.78647735  0.37378482     0.11800
H1061       H  0.85477513  0.80476608  0.22956191     0.14500
H1062       H  0.82779156  0.77636471  0.20629662     0.13300
H1063       H  0.82851868  0.77264378  0.43383127     0.11000
H1064       H  0.86547084  0.75913948  0.41336036     0.13000
C1065       C  0.83151431  0.76142675  0.77179516     0.19100
C1066       C  0.83680275  0.77817887  0.78568086    -0.19000
C1067       C  0.83976595  0.78172074  0.82996754    -0.11300
C1068       C  0.83744885  0.76853214  0.86158487     0.21300
C1069       C  0.83116592  0.75207391  0.84791081    -0.20600
C1070       C  0.82826120  0.74851609  0.80356867    -0.11500
C1071       C  0.84111721  0.77156800  0.90893980    -0.15600
C1072       C  0.85211180  0.78414731  0.92353035    -0.29500
C1073       C  0.83039599  0.75765161  0.72402685    -0.03800
C1074       C  0.83424463  0.74174028  0.70744601    -0.40300
H1075       H  0.83913612  0.78844667  0.76203574     0.12500
H1076       H  0.84380417  0.79483366  0.83909825     0.12100
H1077       H  0.82883432  0.74180164  0.87154397     0.11500
H1078       H  0.82357401  0.73561985  0.79429848     0.11800
H1079       H  0.83483621  0.76295528  0.93244126     0.14500
H1080       H  0.85894085  0.79247553  0.90045889     0.13300
H1081       H  0.82872380  0.76860362  0.70182089     0.11000
H1082       H  0.83763037  0.73114909  0.72944515     0.13000
C1083       C  0.76563349  0.80015099  0.01181317     0.19100
C1084       C  0.75810256  0.80140887  0.97014490    -0.19000
C1085       C  0.73981824  0.80123460  0.96500785    -0.11300
C1086       C  0.72872419  0.79935197  0.00147692     0.21300
C1087       C  0.73627457  0.79782587  0.04302734    -0.20600
C1088       C  0.75451435  0.79841971  0.04826736    -0.11500
C1089       C  0.70939494  0.79745096  0.99675346    -0.15600
C1090       C  0.69998978  0.80605797  0.96646915    -0.29500
C1091       C  0.78506521  0.79954372  0.01639858    -0.03800
C1092       C  0.79345514  0.80669530  0.05080480    -0.40300
H1093       H  0.76639640  0.80248151  0.94151810     0.12500
H1094       H  0.73441082  0.80194325  0.93240283     0.12100
H1095       H  0.72802088  0.79606270  0.07150752     0.11500
H1096       H  0.75991243  0.79692533  0.08070411     0.11800
H1097       H  0.70267176  0.78880073  0.01941226     0.14500
H1098       H  0.70639472  0.81563403  0.94566584     0.13300
H1099       H  0.79264087  0.79332888  0.99050651     0.11000
H1100       H  0.78601782  0.81404360  0.07503021     0.13000
C1101       C  0.89089500  0.89287981  0.87383884     0.19100
C1102       C  0.87786899  0.88006625  0.86732645    -0.19000
C1103       C  0.87006288  0.87165584  0.90309887    -0.11300
C1104       C  0.87518140  0.87604180  0.94588993     0.21300
C1105       C  0.88706448  0.88985546  0.95229376    -0.20600
C1106       C  0.89466078  0.89837122  0.91673884    -0.11500
C1107       C  0.87133769  0.86442126  0.98329580    -0.15600
C1108       C  0.85672183  0.85468711  0.98790927    -0.29500
C1109       C  0.90161531  0.89896181  0.83611235    -0.03800
C1110       C  0.91880979  0.90262476  0.84075078    -0.40300
H1111       H  0.87462337  0.87569928  0.83459231     0.12500
H1112       H  0.86112895  0.86085807  0.89715259     0.12100
H1113       H  0.89116440  0.89348527  0.98498422     0.11500
H1114       H  0.90408588  0.90870089  0.92301769     0.11800
H1115       H  0.88180094  0.86293468  0.00713480     0.14500
H1116       H  0.84543734  0.85664649  0.96689708     0.13300
H1117       H  0.89600956  0.89818487  0.80354777     0.11000
H1118       H  0.92480829  0.90181124  0.87280683     0.13000
C1119       C  0.95385673  0.86340047  0.20123225     0.19100
C1120       C  0.93646768  0.86936942  0.19889858    -0.19000
C1121       C  0.92328345  0.85897036  0.18041943    -0.11300
C1122       C  0.92709231  0.84211295  0.16377521     0.21300
C1123       C  0.94447134  0.83603322  0.16649428    -0.20600
C1124       C  0.95771539  0.84649488  0.18497287    -0.11500
C1125       C  0.91369293  0.83112256  0.14060123    -0.15600
C1126       C  0.89630647  0.83436944  0.14198653    -0.29500
C1127       C  0.96747513  0.87578982  0.21818702    -0.03800
C1128       C  0.98423904  0.87149673  0.22725335    -0.40300
H1129       H  0.93308645  0.88237418  0.21064151     0.12500
H1130       H  0.91033189  0.86461292  0.17809057     0.12100
H1131       H  0.94789766  0.82322982  0.15352513     0.11500
H1132       H  0.97093955  0.84139878  0.18516693     0.11800
H1133       H  0.91839593  0.82035142  0.12034196     0.14500
H1134       H  0.89118715  0.84475108  0.16263031     0.13300
H1135       H  0.96349337  0.88938316  0.22258179     0.11000
H1136       H  0.98872543  0.85806466  0.22398924     0.13000
C1137       C  0.56040929  0.82710896  0.88088851     0.19100
C1138       C  0.54614375  0.83278693  0.90624085    -0.19000
C1139       C  0.53257084  0.84243652  0.88729154    -0.11300
C1140       C  0.53283924  0.84614499  0.84238007     0.21300
C1141       C  0.54653979  0.83950217  0.81652639    -0.20600
C1142       C  0.56036333  0.83024956  0.83569314    -0.11500
C1143       C  0.51917359  0.85729135  0.82228000    -0.15600
C1144       C  0.51382892  0.87222767  0.84162956    -0.29500
C1145       C  0.57541843  0.81843514  0.90251727    -0.03800
C1146       C  0.59209750  0.82265414  0.89270508    -0.40300
H1147       H  0.54584004  0.83032075  0.94104331     0.12500
H1148       H  0.52192230  0.84710023  0.90772912     0.12100
H1149       H  0.54686524  0.84204054  0.78176602     0.11500
H1150       H  0.57105771  0.82565192  0.81531715     0.11800
H1151       H  0.51450664  0.85395225  0.78977514     0.14500
H1152       H  0.51973218  0.87626979  0.87236468     0.13300
H1153       H  0.57272799  0.80987920  0.93002287     0.11000
H1154       H  0.59472480  0.83245818  0.86789849     0.13000
C1155       C  0.42510174  0.18644413  0.59206186     0.19100
C1156       C  0.40682849  0.18654524  0.58643124    -0.19000
C1157       C  0.39828657  0.20140291  0.57047243    -0.11300
C1158       C  0.40788431  0.21654040  0.55955531     0.21300
C1159       C  0.42625624  0.21613193  0.56293165    -0.20600
C1160       C  0.43481363  0.20127585  0.57917320    -0.11500
C1161       C  0.39912987  0.23294058  0.54498203    -0.15600
C1162       C  0.38283193  0.23741136  0.55795443    -0.29500
C1163       C  0.43331856  0.17074628  0.61220590    -0.03800
C1164       C  0.44861722  0.17120929  0.63411926    -0.40300
H1165       H  0.39905901  0.17520424  0.59536226     0.12500
H1166       H  0.38417582  0.20094819  0.56671580     0.12100
H1167       H  0.43398031  0.22749684  0.55394741     0.11500
H1168       H  0.44897593  0.20150108  0.58154012     0.11800
H1169       H  0.40676145  0.24217718  0.52579658     0.14500
H1170       H  0.37555704  0.22888814  0.57976024     0.13300
H1171       H  0.42567741  0.15869948  0.61241258     0.11000
H1172       H  0.45607091  0.18330957  0.63639993     0.13000
C1173       C  0.39086011  0.16399723  0.90383178     0.19100
C1174       C  0.40256346  0.14982449  0.90399807    -0.19000
C1175       C  0.40772528  0.14186685  0.86486027    -0.11300
C1176       C  0.40156491  0.14829735  0.82476125     0.21300
C1177       C  0.38907088  0.16181395  0.82479331    -0.20600
C1178       C  0.38359120  0.16949948  0.86404787    -0.11500
C1179       C  0.41092927  0.14414917  0.78367575    -0.15600
C1180       C  0.41959937  0.12905100  0.77656568    -0.29500
C1181       C  0.38860305  0.17449993  0.94415277    -0.03800
C1182       C  0.37358342  0.18269272  0.95449434    -0.40300
H1183       H  0.40841683  0.14550332  0.93429892     0.12500
H1184       H  0.41770952  0.13178434  0.86595232     0.12100
H1185       H  0.38439563  0.16717670  0.79425363     0.11500
H1186       H  0.37478817  0.18063584  0.86290807     0.11800
H1187       H  0.41285026  0.15496239  0.76109223     0.14500
H1188       H  0.41711887  0.11758953  0.79657100     0.13300
H1189       H  0.39986482  0.17581044  0.96569381     0.11000
H1190       H  0.36178938  0.18035337  0.93544904     0.13000
C1191       C  0.46805519  0.03621563  0.75853117     0.19100
C1192       C  0.48155053  0.02558383  0.77484309    -0.19000
C1193       C  0.47871975  0.00773510  0.78272267    -0.11300
C1194       C  0.46217733  0.00010517  0.77520207     0.21300
C1195       C  0.44845007  0.01082450  0.76047135    -0.20600
C1196       C  0.45136948  0.02867323  0.75177655    -0.11500
C1197       C  0.45905088  0.98112862  0.78391556    -0.15600
C1198       C  0.47115687  0.96891287  0.77371962    -0.29500
C1199       C  0.47188415  0.05511349  0.75014201    -0.03800
C1200       C  0.46319546  0.06491944  0.72073100    -0.40300
H1201       H  0.49443258  0.03107296  0.78105364     0.12500
H1202       H  0.48943763  0.99994421  0.79531920     0.12100
H1203       H  0.43551402  0.00531951  0.75514164     0.11500
H1204       H  0.44048516  0.03654384  0.74052571     0.11800
H1205       H  0.44660007  0.97716395  0.79813217     0.14500
H1206       H  0.48301389  0.97295749  0.75671754     0.13300
H1207       H  0.48294776  0.06091709  0.76730994     0.11000
H1208       H  0.45267603  0.05913121  0.70164767     0.13000
C1209       C  0.59659715  0.80951837  0.40759833     0.19100
C1210       C  0.58473768  0.82007458  0.43108949    -0.19000
C1211       C  0.57651452  0.83439904  0.41116876    -0.11300
C1212       C  0.57981805  0.83824725  0.36703080     0.21300
C1213       C  0.59134984  0.82746009  0.34334535    -0.20600
C1214       C  0.59972344  0.81332033  0.36333944    -0.11500
C1215       C  0.57081738  0.85274601  0.34385605    -0.15600
C1216       C  0.56569016  0.86779050  0.36327153    -0.29500
C1217       C  0.60484775  0.79415903  0.42929719    -0.03800
C1218       C  0.62049576  0.78758825  0.41687429    -0.40300
H1219       H  0.58185318  0.81723903  0.46498318     0.12500
H1220       H  0.56728754  0.84214215  0.43000900     0.12100
H1221       H  0.59388009  0.82997734  0.30911400     0.11500
H1222       H  0.60825585  0.80514306  0.34365220     0.11800
H1223       H  0.56910213  0.85127061  0.30879253     0.14500
H1224       H  0.56833948  0.87002130  0.39768159     0.13300
H1225       H  0.59796409  0.78828187  0.45668929     0.11000
H1226       H  0.62795520  0.79399227  0.39126390     0.13000
C1227       C  0.61442402  0.86176854  0.09693423     0.19100
C1228       C  0.61375651  0.86176695  0.14264809    -0.19000
C1229       C  0.60282974  0.87347220  0.16506924    -0.11300
C1230       C  0.59194124  0.88510630  0.14205143     0.21300
C1231       C  0.59304630  0.88552026  0.09631196    -0.20600
C1232       C  0.60440546  0.87412549  0.07389743    -0.11500
C1233       C  0.57758320  0.89463585  0.16492631    -0.15600
C1234       C  0.57945290  0.90088436  0.20577173    -0.29500
C1235       C  0.62247032  0.84661141  0.07412509    -0.03800
C1236       C  0.63147459  0.84778425  0.03645249    -0.40300
H1237       H  0.62106199  0.85209147  0.16095458     0.12500
H1238       H  0.60194415  0.87245871  0.20025068     0.12100
H1239       H  0.58458501  0.89415381  0.07787344     0.11500
H1240       H  0.60431970  0.87404070  0.03853729     0.11800
H1241       H  0.56479137  0.89500371  0.14932774     0.14500
H1242       H  0.59244624  0.90127985  0.22032586     0.13300
H1243       H  0.61969050  0.83370501  0.08748287     0.11000
H1244       H  0.63546805  0.86048921  0.02394195     0.13000
C1245       C  0.47958120  0.91921989  0.01427655     0.19100
C1246       C  0.47050876  0.92476380  0.05172624    -0.19000
C1247       C  0.47710122  0.92103790  0.09329146    -0.11300
C1248       C  0.49270107  0.91133172  0.09794675     0.21300
C1249       C  0.50145130  0.90536785  0.06039522    -0.20600
C1250       C  0.49507126  0.90941297  0.01894165    -0.11500
C1251       C  0.50001417  0.90684271  0.14132018    -0.15600
C1252       C  0.49832276  0.91735150  0.17644772    -0.29500
C1253       C  0.47210921  0.92247148  0.97052070    -0.03800
C1254       C  0.48230762  0.92671234  0.93632276    -0.40300
H1255       H  0.45835254  0.93201397  0.04876549     0.12500
H1256       H  0.46976498  0.92539930  0.12162377     0.12100
H1257       H  0.51333967  0.89766971  0.06315981     0.11500
H1258       H  0.50201367  0.90449253  0.99051514     0.11800
H1259       H  0.50806636  0.89511794  0.14363272     0.14500
H1260       H  0.49141301  0.92975172  0.17375781     0.13300
H1261       H  0.45806822  0.92071189  0.96614452     0.11000
H1262       H  0.49616423  0.92940682  0.94143516     0.13000
C1263       C  0.51060322  0.92174992  0.51290731     0.19100
C1264       C  0.49396022  0.92099430  0.53226021    -0.19000
C1265       C  0.49222899  0.91992990  0.57742681    -0.11300
C1266       C  0.50716751  0.91931923  0.60429632     0.21300
C1267       C  0.52382443  0.92093523  0.58534348    -0.20600
C1268       C  0.52558533  0.92197430  0.53991801    -0.11500
C1269       C  0.50534073  0.91641992  0.65185431    -0.15600
C1270       C  0.49310135  0.90529739  0.66679604    -0.29500
C1271       C  0.51166981  0.92100211  0.46460869    -0.03800
C1272       C  0.52579949  0.92605554  0.44169338    -0.40300
H1273       H  0.48223152  0.92093718  0.51228934     0.12500
H1274       H  0.47916221  0.91932614  0.59130176     0.12100
H1275       H  0.53548159  0.92061464  0.60552759     0.11500
H1276       H  0.53867570  0.92221558  0.52628341     0.11800
H1277       H  0.51388984  0.92342078  0.67434854     0.14500
H1278       H  0.48519357  0.89790161  0.64359178     0.13300
H1279       H  0.50027999  0.91599423  0.44718604     0.11000
H1280       H  0.53704929  0.93182921  0.45797873     0.13000
C1281       C  0.46910786  0.16869161  0.17071072     0.19100
C1282       C  0.45174474  0.16511035  0.18333817    -0.19000
C1283       C  0.43785631  0.17573359  0.16936442    -0.11300
C1284       C  0.44098081  0.19011642  0.14166133     0.21300
C1285       C  0.45839448  0.19393399  0.12989580    -0.20600
C1286       C  0.47228324  0.18333427  0.14393959    -0.11500
C1287       C  0.42654687  0.20111837  0.12328068    -0.15600
C1288       C  0.40983365  0.19551268  0.11928389    -0.29500
C1289       C  0.48335529  0.15645211  0.18446447    -0.03800
C1290       C  0.50045228  0.16096162  0.18628229    -0.40300
H1291       H  0.44889409  0.15399114  0.20409552     0.12500
H1292       H  0.42475596  0.17257563  0.18042742     0.12100
H1293       H  0.46123783  0.20490095  0.10864212     0.11500
H1294       H  0.48536463  0.18638984  0.13255112     0.11800
H1295       H  0.43011659  0.21367843  0.10911240     0.14500
H1296       H  0.40617846  0.18258881  0.13085286     0.13300
H1297       H  0.47953615  0.14332508  0.19445811     0.11000
H1298       H  0.50443935  0.17428530  0.17886627     0.13000
C1299       C  0.50795302  0.10986303  0.91224484     0.19100
C1300       C  0.52555763  0.10986708  0.92554784    -0.19000
C1301       C  0.52988039  0.10917739  0.96986022    -0.11300
C1302       C  0.51659536  0.10816481  0.00178671     0.21300
C1303       C  0.49901904  0.10744349  0.98824992    -0.20600
C1304       C  0.49471147  0.10818610  0.94399339    -0.11500
C1305       C  0.52031205  0.10913454  0.04934750    -0.15600
C1306       C  0.53614278  0.10613705  0.06724816    -0.29500
C1307       C  0.50387166  0.11202440  0.86522539    -0.03800
C1308       C  0.48909877  0.11982124  0.85116160    -0.40300
H1309       H  0.53598955  0.11106072  0.90165519     0.12500
H1310       H  0.54357248  0.11010697  0.97873701     0.12100
H1311       H  0.48853663  0.10655552  0.01209642     0.11500
H1312       H  0.48101589  0.10752923  0.93484935     0.11800
H1313       H  0.50943047  0.11268588  0.07064812     0.14500
H1314       H  0.54709831  0.10178455  0.04730792     0.13300
H1315       H  0.51387944  0.10824876  0.84165669     0.11000
H1316       H  0.47944055  0.12459390  0.87444149     0.13000
C1317       C  0.51054478  0.12249593  0.41369614     0.19100
C1318       C  0.51997934  0.12499197  0.45247662    -0.19000
C1319       C  0.51192874  0.12227274  0.49294276    -0.11300
C1320       C  0.49414288  0.11737902  0.49527222     0.21300
C1321       C  0.48462019  0.11523151  0.45645875    -0.20600
C1322       C  0.49278714  0.11755199  0.41596428    -0.11500
C1323       C  0.48492546  0.11584893  0.53773268    -0.15600
C1324       C  0.49286193  0.11002584  0.57406253    -0.29500
C1325       C  0.51921420  0.12594754  0.37131374    -0.03800
C1326       C  0.51638154  0.11583956  0.33598327    -0.40300
H1327       H  0.53360387  0.12903759  0.45141230     0.12500
H1328       H  0.51947347  0.12457570  0.52234072     0.12100
H1329       H  0.47083047  0.11178878  0.45751929     0.11500
H1330       H  0.48509752  0.11596955  0.38649812     0.11800
H1331       H  0.47121601  0.11974661  0.53907899     0.14500
H1332       H  0.50622878  0.10512214  0.57239840     0.13300
H1333       H  0.52871883  0.13656683  0.36967210     0.11000
H1334       H  0.50804333  0.10431625  0.33852667     0.13000
C1335       C  0.54662738  0.03379408  0.23483350     0.19100
C1336       C  0.53127963  0.02407133  0.24205388    -0.19000
C1337       C  0.53202805  0.00624353  0.25197801    -0.11300
C1338       C  0.54827106  0.99753949  0.25550443     0.21300
C1339       C  0.56369337  0.00717450  0.24763858    -0.20600
C1340       C  0.56293327  0.02512720  0.23750788    -0.11500
C1341       C  0.54936094  0.97839769  0.26585041    -0.15600
C1342       C  0.53629869  0.96985102  0.28648166    -0.29500
C1343       C  0.54464783  0.05263761  0.22290113    -0.03800
C1344       C  0.55762613  0.06464915  0.22330539    -0.40300
H1345       H  0.51852626  0.03027737  0.23958778     0.12500
H1346       H  0.51973230  0.99934583  0.25570960     0.12100
H1347       H  0.57637490  0.00079181  0.24937011     0.11500
H1348       H  0.57508454  0.03198000  0.23111654     0.11800
H1349       H  0.56116966  0.97126681  0.25672505     0.14500
H1350       H  0.52487878  0.97706837  0.29769717     0.13300
H1351       H  0.53151030  0.05695598  0.21427884     0.11000
H1352       H  0.57079862  0.06105653  0.23318135     0.13000
C1353       C  0.90058908  0.73058178  0.12525487     0.19100
C1354       C  0.89416676  0.71573014  0.14683884    -0.19000
C1355       C  0.90552872  0.70242332  0.15995763    -0.11300
C1356       C  0.92367961  0.70366649  0.15177289     0.21300
C1357       C  0.93020794  0.71871845  0.13120819    -0.20600
C1358       C  0.91880149  0.73205006  0.11790951    -0.11500
C1359       C  0.93605275  0.68985132  0.16644938    -0.15600
C1360       C  0.93107397  0.67302316  0.17023010    -0.29500
C1361       C  0.88789960  0.74443683  0.11257958    -0.03800
C1362       C  0.89108645  0.75638527  0.08142898    -0.40300
H1363       H  0.88027014  0.71441798  0.15366640     0.12500
H1364       H  0.90005040  0.69139555  0.17743375     0.12100
H1365       H  0.94416370  0.72015184  0.12539555     0.11500
H1366       H  0.92438512  0.74357131  0.10281429     0.11800
H1367       H  0.94941092  0.69362428  0.17462222     0.14500
H1368       H  0.91800707  0.66908020  0.16002529     0.13300
H1369       H  0.87520661  0.74449583  0.12885089     0.11000
H1370       H  0.90338990  0.75625143  0.06357974     0.13000
C1371       C  0.89884688  0.66985731  0.45972267     0.19100
C1372       C  0.89038611  0.66311454  0.42238116    -0.19000
C1373       C  0.89980585  0.65299239  0.39187594    -0.11300
C1374       C  0.91776911  0.64957238  0.39835823     0.21300
C1375       C  0.92574305  0.65530453  0.43704957    -0.20600
C1376       C  0.91639467  0.66527120  0.46738069    -0.11500
C1377       C  0.92940533  0.64342217  0.36267910    -0.15600
C1378       C  0.92444471  0.63361061  0.32821842    -0.29500
C1379       C  0.89101392  0.68350476  0.48847336    -0.03800
C1380       C  0.87384616  0.68755077  0.49156367    -0.40300
H1381       H  0.87694330  0.66657340  0.41512365     0.12500
H1382       H  0.89339383  0.64905780  0.36187642     0.12100
H1383       H  0.93957882  0.65293471  0.44266624     0.11500
H1384       H  0.92322855  0.67024195  0.49587963     0.11800
H1385       H  0.94282448  0.64833638  0.36347445     0.14500
H1386       H  0.91169357  0.62726258  0.32720039     0.13300
H1387       H  0.90023987  0.69099725  0.50823599     0.11000
H1388       H  0.86392831  0.67972895  0.47515592     0.13000
C1389       C  0.97190769  0.54155277  0.27702381     0.19100
C1390       C  0.95902611  0.52987555  0.26098321    -0.19000
C1391       C  0.95904073  0.51219283  0.27355568    -0.11300
C1392       C  0.97195340  0.50589213  0.30223167     0.21300
C1393       C  0.98463689  0.51759797  0.31827528    -0.20600
C1394       C  0.98460043  0.53515767  0.30591614    -0.11500
C1395       C  0.97381773  0.48711396  0.31386495    -0.15600
C1396       C  0.96138134  0.47460783  0.30958417    -0.29500
C1397       C  0.97325186  0.56026939  0.26376842    -0.03800
C1398       C  0.96095452  0.56908017  0.24131908    -0.40300
H1399       H  0.94919299  0.53409160  0.23795445     0.12500
H1400       H  0.94931779  0.50346095  0.25967490     0.12100
H1401       H  0.99482217  0.51308485  0.34015480     0.11500
H1402       H  0.99471164  0.54375835  0.31870604     0.11800
H1403       H  0.98650760  0.48339354  0.32708183     0.14500
H1404       H  0.94828874  0.47779525  0.29826733     0.13300
H1405       H  0.98506922  0.56725863  0.27355129     0.11000
H1406       H  0.94878625  0.56279437  0.23174862     0.13000
C1407       C  0.07603478  0.34653480  0.39527992     0.19100
C1408       C  0.07696829  0.35963063  0.36332468    -0.19000
C1409       C  0.06169815  0.36709706  0.34633096    -0.11300
C1410       C  0.04507016  0.36180306  0.36156044     0.21300
C1411       C  0.04412089  0.34847272  0.39286871    -0.20600
C1412       C  0.05939389  0.34098771  0.40983593    -0.11500
C1413       C  0.02849378  0.37004701  0.34632668    -0.15600
C1414       C  0.02784228  0.38641500  0.33029162    -0.29500
C1415       C  0.09266689  0.33967908  0.41400309    -0.03800
C1416       C  0.09391395  0.32438230  0.43557168    -0.40300
H1417       H  0.08959498  0.36412623  0.35144264     0.12500
H1418       H  0.06304640  0.37692056  0.32121038     0.12100
H1419       H  0.03149912  0.34415295  0.40516103     0.11500
H1420       H  0.05801956  0.33127640  0.43518425     0.11800
H1421       H  0.01630110  0.36290642  0.35132456     0.14500
H1422       H  0.03974595  0.39414324  0.32735584     0.13300
H1423       H  0.10442387  0.34757708  0.40960207     0.11000
H1424       H  0.08258599  0.31586584  0.43885178     0.13000
C1425       C  0.95642260  0.68061663  0.70156302     0.19100
C1426       C  0.95233000  0.69842672  0.70716365    -0.19000
C1427       C  0.93593073  0.70491496  0.69431465    -0.11300
C1428       C  0.92326900  0.69359676  0.67588096     0.21300
C1429       C  0.92703977  0.67563586  0.67283957    -0.20600
C1430       C  0.94338285  0.66919716  0.68549431    -0.11500
C1431       C  0.90627807  0.69987444  0.65793739    -0.15600
C1432       C  0.90369446  0.71636566  0.64399179    -0.29500
C1433       C  0.97416510  0.67403957  0.71333538    -0.03800
C1434       C  0.98141203  0.66034371  0.69219542    -0.40300
H1435       H  0.96197774  0.70739631  0.72056572     0.12500
H1436       H  0.93330835  0.71874756  0.69879577     0.12100
H1437       H  0.91744373  0.66656974  0.65958015     0.11500
H1438       H  0.94572815  0.65523390  0.68270244     0.11800
H1439       H  0.89615941  0.69011159  0.65173708     0.14500
H1440       H  0.91390194  0.72617880  0.64776770     0.13300
H1441       H  0.98126044  0.68043963  0.73972745     0.11000
H1442       H  0.97454540  0.65444130  0.66475483     0.13000
C1443       C  0.00301985  0.62364800  0.42390493     0.19100
C1444       C  0.99247506  0.62247278  0.46145580    -0.19000
C1445       C  0.99997764  0.62022330  0.50271252    -0.11300
C1446       C  0.01831304  0.61921695  0.50750454     0.21300
C1447       C  0.02888721  0.62040955  0.47001860    -0.20600
C1448       C  0.02136460  0.62248662  0.42860881    -0.11500
C1449       C  0.02674995  0.61859334  0.55134215    -0.15600
C1450       C  0.01896057  0.61155240  0.58671384    -0.29500
C1451       C  0.99434808  0.62717817  0.38122734    -0.03800
C1452       C  0.00172711  0.62427239  0.34174531    -0.40300
H1453       H  0.97833103  0.62356172  0.45895219     0.12500
H1454       H  0.99139247  0.61996537  0.53088042     0.12100
H1455       H  0.04305044  0.61997551  0.47287083     0.11500
H1456       H  0.03000352  0.62377720  0.40077052     0.11800
H1457       H  0.03965612  0.62452850  0.55472371     0.14500
H1458       H  0.00644663  0.60486163  0.58334055     0.13300
H1459       H  0.98095551  0.63208427  0.38251119     0.11000
H1460       H  0.01467878  0.61845902  0.33917302     0.13000
C1461       C  0.99226089  0.61735225  0.91965953     0.19100
C1462       C  0.97504803  0.61435927  0.93429927    -0.19000
C1463       C  0.97153756  0.61176827  0.97879828    -0.11300
C1464       C  0.98527563  0.61192098  0.00956473     0.21300
C1465       C  0.00254538  0.61412789  0.99452408    -0.20600
C1466       C  0.00602197  0.61684278  0.95023214    -0.11500
C1467       C  0.98231374  0.60997992  0.05746797    -0.15600
C1468       C  0.96705915  0.61385078  0.07764596    -0.29500
C1469       C  0.99566028  0.62054643  0.87238795    -0.03800
C1470       C  0.00906426  0.63065790  0.85868694    -0.40300
H1471       H  0.96425592  0.61430677  0.91132753     0.12500
H1472       H  0.95810151  0.60953886  0.98876463     0.12100
H1473       H  0.01341747  0.61401945  0.01727607     0.11500
H1474       H  0.01954110  0.61836666  0.94002729     0.11800
H1475       H  0.99363307  0.60672159  0.07741290     0.14500
H1476       H  0.95587155  0.61826425  0.05881034     0.13300
H1477       H  0.98681127  0.61474606  0.84856734     0.11000
H1478       H  0.01733271  0.63718478  0.88261113     0.13000
C1479       C  0.01607791  0.41613303  0.11711217     0.19100
C1480       C  0.02572839  0.40231925  0.09840073    -0.19000
C1481       C  0.03418761  0.40445357  0.05832359    -0.11300
C1482       C  0.03300616  0.42039204  0.03593276     0.21300
C1483       C  0.02387504  0.43445450  0.05531590    -0.20600
C1484       C  0.01533686  0.43230446  0.09522623    -0.11500
C1485       C  0.04052438  0.42155629  0.99144149    -0.15600
C1486       C  0.03362052  0.43208454  0.96096167    -0.29500
C1487       C  0.00696082  0.41297585  0.15914004    -0.03800
C1488       C  0.00062899  0.42577456  0.18511318    -0.40300
H1489       H  0.02660024  0.38975656  0.11466421     0.12500
H1490       H  0.04121325  0.39345536  0.04414923     0.12100
H1491       H  0.02314085  0.44712373  0.03966729     0.11500
H1492       H  0.00795447  0.44328322  0.10798723     0.11800
H1493       H  0.05054699  0.41210849  0.98207039     0.14500
H1494       H  0.02269156  0.44064322  0.96890181     0.13300
H1495       H  0.00624659  0.39946866  0.17028899     0.11000
H1496       H  0.00183308  0.43947319  0.17633295     0.13000
C1497       C  0.00552889  0.41835439  0.61477336     0.19100
C1498       C  0.01466840  0.41353030  0.57689949    -0.19000
C1499       C  0.00762901  0.41685852  0.53593465    -0.11300
C1500       C  0.99128401  0.42527177  0.53189700     0.21300
C1501       C  0.98178909  0.42955867  0.56961051    -0.20600
C1502       C  0.98883198  0.42618188  0.61081107    -0.11500
C1503       C  0.98364804  0.42873563  0.48849580    -0.15600
C1504       C  0.99397130  0.43177769  0.45391573    -0.29500
C1505       C  0.01392368  0.41466316  0.65730426    -0.03800
C1506       C  0.00848356  0.42152942  0.69535729    -0.40300
H1507       H  0.02734584  0.40716790  0.57896655     0.12500
H1508       H  0.01492902  0.41252335  0.50751403     0.12100
H1509       H  0.96897680  0.43561495  0.56716339     0.11500
H1510       H  0.98099454  0.42955497  0.63904307     0.11800
H1511       H  0.96950412  0.42785211  0.48454086     0.14500
H1512       H  0.00805889  0.43308834  0.45810947     0.13300
H1513       H  0.02544394  0.40625544  0.65709297     0.11000
H1514       H  0.99728258  0.43024303  0.69697065     0.13000
C1515       C  0.04623507  0.54012969  0.74210904     0.19100
C1516       C  0.06088561  0.52925977  0.74844084    -0.19000
C1517       C  0.05869937  0.51153013  0.75984250    -0.11300
C1518       C  0.04175512  0.50426878  0.76425671     0.21300
C1519       C  0.02719556  0.51501846  0.75613779    -0.20600
C1520       C  0.02936953  0.53270410  0.74547834    -0.11500
C1521       C  0.03856538  0.48552684  0.77592554    -0.15600
C1522       C  0.04967504  0.47573916  0.79982098    -0.29500
C1523       C  0.04848608  0.55910875  0.73144476    -0.03800
C1524       C  0.03749937  0.57122257  0.74823389    -0.40300
H1525       H  0.07401642  0.53456773  0.74529896     0.12500
H1526       H  0.07025960  0.50352742  0.76452286     0.12100
H1527       H  0.01401958  0.50974963  0.75853077     0.11500
H1528       H  0.01778845  0.54054009  0.73940321     0.11800
H1529       H  0.02604308  0.47985358  0.76638936     0.14500
H1530       H  0.06184771  0.48143327  0.81162479     0.13300
H1531       H  0.05914083  0.56308590  0.71005030     0.11000
H1532       H  0.02762835  0.56699871  0.77160617     0.13000
C1533       C  0.08143003  0.33970765  0.89468018     0.19100
C1534       C  0.07917566  0.32221361  0.88105282    -0.19000
C1535       C  0.09047398  0.30896125  0.89571750    -0.11300
C1536       C  0.10427860  0.31290801  0.92473863     0.21300
C1537       C  0.10635825  0.33031528  0.93884881    -0.20600
C1538       C  0.09499723  0.34350149  0.92456790    -0.11500
C1539       C  0.11691683  0.29940241  0.94057442    -0.15600
C1540       C  0.11289671  0.28226360  0.94385277    -0.29500
C1541       C  0.06970537  0.35363268  0.87646750    -0.03800
C1542       C  0.07420496  0.37073154  0.87607584    -0.40300
H1543       H  0.06885884  0.31883734  0.85819962     0.12500
H1544       H  0.08859642  0.29577104  0.88337771     0.12100
H1545       H  0.11675037  0.33372043  0.96146230     0.11500
H1546       H  0.09692315  0.35657834  0.93747393     0.11800
H1547       H  0.12958683  0.30389624  0.95247538     0.14500
H1548       H  0.09987809  0.27774529  0.93486067     0.13300
H1549       H  0.05763534  0.34959186  0.86043682     0.11000
H1550       H  0.08669430  0.37481886  0.88960697     0.13000
C1551       C  0.12372461  0.36943805  0.62468899     0.19100
C1552       C  0.12479728  0.37139939  0.67011778    -0.19000
C1553       C  0.11431981  0.38373292  0.69179253    -0.11300
C1554       C  0.10215517  0.39384485  0.66838029     0.21300
C1555       C  0.10173984  0.39252239  0.62272419    -0.20600
C1556       C  0.11267413  0.38061912  0.60090258    -0.11500
C1557       C  0.08742445  0.40240316  0.69153908    -0.15600
C1558       C  0.08937344  0.41095424  0.72963097    -0.29500
C1559       C  0.13107073  0.35353526  0.60385771    -0.03800
C1560       C  0.13854026  0.35361492  0.56418649    -0.40300
H1561       H  0.13300354  0.36268858  0.68904874     0.12500
H1562       H  0.11456369  0.38416815  0.72713413     0.12100
H1563       H  0.09221291  0.39994263  0.60420375     0.11500
H1564       H  0.11131410  0.37904748  0.56590551     0.11800
H1565       H  0.07427289  0.39957842  0.67964146     0.14500
H1566       H  0.10232619  0.41485724  0.74084099     0.13300
H1567       H  0.12882350  0.34109289  0.62017922     0.11000
H1568       H  0.14196953  0.36593798  0.54865213     0.13000
C1569       C  0.09424240  0.89856325  0.37689927     0.19100
C1570       C  0.09551074  0.89879430  0.42251194    -0.19000
C1571       C  0.10665520  0.88712532  0.44392029    -0.11300
C1572       C  0.11657634  0.87479387  0.41997226     0.21300
C1573       C  0.11598162  0.87516397  0.37428077    -0.20600
C1574       C  0.10504345  0.88702862  0.35284105    -0.11500
C1575       C  0.12519014  0.85979014  0.44184024    -0.15600
C1576       C  0.13127011  0.86083964  0.48283505    -0.29500
C1577       C  0.07927468  0.90762077  0.35601404    -0.03800
C1578       C  0.07931942  0.91214322  0.31373378    -0.40300
H1579       H  0.08710535  0.90732208  0.44171510     0.12500
H1580       H  0.10639223  0.88691194  0.47924141     0.12100
H1581       H  0.12330599  0.86564771  0.35521018     0.11500
H1582       H  0.10404393  0.88610661  0.31766239     0.11800
H1583       H  0.12514504  0.84719981  0.42500470     0.14500
H1584       H  0.13217259  0.87353062  0.49897279     0.13300
H1585       H  0.06710764  0.90835341  0.37452306     0.11000
H1586       H  0.09157928  0.91226768  0.29558301     0.13000
C1587       C  0.04000136  0.87599668  0.67568696     0.19100
C1588       C  0.05724660  0.87864464  0.69046712    -0.19000
C1589       C  0.07117129  0.86871271  0.67343053    -0.11300
C1590       C  0.06811838  0.85600948  0.64077466     0.21300
C1591       C  0.05090787  0.85358946  0.62555177    -0.20600
C1592       C  0.03700156  0.86339437  0.64280055    -0.11500
C1593       C  0.08252906  0.84592814  0.61940500    -0.15600
C1594       C  0.09855347  0.84326631  0.63687482    -0.29500
C1595       C  0.02554561  0.88698489  0.69390733    -0.03800
C1596       C  0.00877994  0.88142935  0.69588418    -0.40300
H1597       H  0.05995602  0.88845188  0.71529727     0.12500
H1598       H  0.08429209  0.87138670  0.68508193     0.12100
H1599       H  0.04821290  0.84413948  0.59985535     0.11500
H1600       H  0.02401887  0.86136845  0.62945570     0.11800
H1601       H  0.07970371  0.84038313  0.58739676     0.14500
H1602       H  0.10157610  0.84798715  0.66947378     0.13300
H1603       H  0.02892218  0.89972297  0.70764122     0.11000
H1604       H  0.00546109  0.86825518  0.68507861     0.13000
C1605       C  0.07365548  0.70610914  0.63747868     0.19100
C1606       C  0.07188069  0.72331754  0.65373269    -0.19000
C1607       C  0.08304012  0.73681522  0.63961883    -0.11300
C1608       C  0.09628467  0.73346969  0.60853566     0.21300
C1609       C  0.09803223  0.71632581  0.59211352    -0.20600
C1610       C  0.08679502  0.70285645  0.60594535    -0.11500
C1611       C  0.10877930  0.74734543  0.59347767    -0.15600
C1612       C  0.10468556  0.76454607  0.59252598    -0.29500
C1613       C  0.06183374  0.69202866  0.65504208    -0.03800
C1614       C  0.06497525  0.67466654  0.65068593    -0.40300
H1615       H  0.06198339  0.72629424  0.67811114     0.12500
H1616       H  0.08150169  0.74973107  0.65393384     0.12100
H1617       H  0.10807524  0.71335480  0.56810870     0.11500
H1618       H  0.08850318  0.69001392  0.59150940     0.11800
H1619       H  0.12147285  0.74316618  0.58100458     0.14500
H1620       H  0.09164317  0.76874399  0.60229126     0.13300
H1621       H  0.05080237  0.69614316  0.67518961     0.11000
H1622       H  0.07645643  0.67017237  0.63297831     0.13000
C1623       C  0.40903476  0.88905813  0.64774670     0.19100
C1624       C  0.41310539  0.88839463  0.60314155    -0.19000
C1625       C  0.40194786  0.87982593  0.57384797    -0.11300
C1626       C  0.38692743  0.87111713  0.58896515     0.21300
C1627       C  0.38236949  0.87243784  0.63339722    -0.20600
C1628       C  0.39328621  0.88153301  0.66256937    -0.11500
C1629       C  0.37736405  0.85945376  0.55832885    -0.15600
C1630       C  0.37308636  0.84293054  0.56931752    -0.29500
C1631       C  0.42291355  0.89418661  0.67881963    -0.03800
C1632       C  0.42041737  0.90472959  0.71358677    -0.40300
H1633       H  0.42533005  0.89386721  0.59126819     0.12500
H1634       H  0.40570527  0.87894316  0.53977132     0.12100
H1635       H  0.37074705  0.86592747  0.64571792     0.11500
H1636       H  0.39009963  0.88157779  0.69705760     0.11800
H1637       H  0.37661891  0.86337641  0.52430709     0.14500
H1638       H  0.37538368  0.83846225  0.60246866     0.13300
H1639       H  0.43577587  0.88834447  0.67356763     0.11000
H1640       H  0.40819409  0.91184484  0.71799050     0.13000
C1641       C  0.45750773  0.86223355  0.35833877     0.19100
C1642       C  0.43960803  0.86572481  0.35184555    -0.19000
C1643       C  0.42665818  0.85493773  0.37007789    -0.11300
C1644       C  0.43128408  0.84035446  0.39568316     0.21300
C1645       C  0.44918636  0.83696327  0.40262329    -0.20600
C1646       C  0.46216607  0.84768522  0.38404603    -0.11500
C1647       C  0.41779738  0.82932416  0.41815819    -0.15600
C1648       C  0.40119512  0.82754440  0.40359228    -0.29500
C1649       C  0.47075695  0.87463182  0.33983585    -0.03800
C1650       C  0.48769043  0.87045571  0.33212273    -0.40300
H1651       H  0.43559874  0.87697598  0.33283081     0.12500
H1652       H  0.41305718  0.85845242  0.36516282     0.12100
H1653       H  0.45314964  0.82604447  0.42283622     0.11500
H1654       H  0.47576472  0.84480733  0.39103935     0.11800
H1655       H  0.42160851  0.82272126  0.44802768     0.14500
H1656       H  0.39746442  0.83349836  0.37287043     0.13300
H1657       H  0.46622308  0.88768998  0.33130557     0.11000
H1658       H  0.49233246  0.85725267  0.33833203     0.13000
C1659       C  0.26607801  0.81346752  0.50258100     0.19100
C1660       C  0.25148380  0.81519812  0.47501366    -0.19000
C1661       C  0.23443932  0.81562738  0.49226340    -0.11300
C1662       C  0.23166050  0.81377411  0.53740543     0.21300
C1663       C  0.24625803  0.81212651  0.56498363    -0.20600
C1664       C  0.26332924  0.81224102  0.54786028    -0.11500
C1665       C  0.21369762  0.81181890  0.55575808    -0.15600
C1666       C  0.19993190  0.82131154  0.54187433    -0.29500
C1667       C  0.28377710  0.81082043  0.48322493    -0.03800
C1668       C  0.29857970  0.81745576  0.50074913    -0.40300
H1669       H  0.25327612  0.81589216  0.43996096     0.12500
H1670       H  0.22341924  0.81653899  0.47012268     0.12100
H1671       H  0.24442035  0.81046705  0.59980320     0.11500
H1672       H  0.27431092  0.81047036  0.56977662     0.11800
H1673       H  0.21183328  0.80248093  0.58207468     0.14500
H1674       H  0.20197333  0.83170112  0.51823138     0.13300
H1675       H  0.28462485  0.80303432  0.45344891     0.11000
H1676       H  0.29781263  0.82641367  0.52839484     0.13000
C1677       C  0.07901144  0.85098336  0.12632522     0.19100
C1678       C  0.07468932  0.84094301  0.08933282    -0.19000
C1679       C  0.08509934  0.82657768  0.07690752    -0.11300
C1680       C  0.10028713  0.82231563  0.10068390     0.21300
C1681       C  0.10497591  0.83280165  0.13656847    -0.20600
C1682       C  0.09436898  0.84686640  0.14958717    -0.11500
C1683       C  0.11173393  0.80732672  0.08819588    -0.15600
C1684       C  0.10528827  0.79184506  0.07424300    -0.29500
C1685       C  0.06746589  0.86571603  0.14037448    -0.03800
C1686       C  0.06406370  0.86862242  0.18286481    -0.40300
H1687       H  0.06305271  0.84399978  0.07060797     0.12500
H1688       H  0.08140819  0.81895999  0.04842778     0.12100
H1689       H  0.11673349  0.82991462  0.15501495     0.11500
H1690       H  0.09828406  0.85464265  0.17762532     0.11800
H1691       H  0.12576494  0.80865601  0.09362506     0.14500
H1692       H  0.09117875  0.78995066  0.07230038     0.13300
H1693       H  0.06114940  0.87370222  0.11569351     0.11000
H1694       H  0.06942730  0.85967447  0.20692007     0.13000
C1695       C  0.09429814  0.65524183  0.86750614     0.19100
C1696       C  0.09094881  0.65823547  0.91193179    -0.19000
C1697       C  0.10201661  0.66899876  0.93657916    -0.11300
C1698       C  0.11647110  0.67731384  0.91691956     0.21300
C1699       C  0.12028233  0.67371903  0.87293194    -0.20600
C1700       C  0.10942225  0.66255614  0.84848789    -0.11500
C1701       C  0.12573498  0.69176628  0.93986548    -0.15600
C1702       C  0.12856613  0.69153950  0.98312865    -0.29500
C1703       C  0.08008589  0.64780941  0.84028240    -0.03800
C1704       C  0.08264608  0.63871814  0.80311163    -0.40300
H1705       H  0.07919235  0.65300553  0.92700388     0.12500
H1706       H  0.09845551  0.67186229  0.97010896     0.12100
H1707       H  0.13120259  0.68017995  0.85700256     0.11500
H1708       H  0.11206919  0.66083385  0.81398651     0.11800
H1709       H  0.12897115  0.70343912  0.92125481     0.14500
H1710       H  0.12636155  0.67951364  0.00125238     0.13300
H1711       H  0.06672845  0.65119678  0.84970238     0.11000
H1712       H  0.09558313  0.63394976  0.79407680     0.13000
C1713       C  0.03560808  0.68569770  0.17544108     0.19100
C1714       C  0.04954019  0.69140928  0.20183476    -0.19000
C1715       C  0.06390299  0.70023923  0.18360105    -0.11300
C1716       C  0.06444917  0.70371552  0.13849406     0.21300
C1717       C  0.05008095  0.69866582  0.11260067    -0.20600
C1718       C  0.03584773  0.68971865  0.13074675    -0.11500
C1719       C  0.07957136  0.71241476  0.11660607    -0.15600
C1720       C  0.09560117  0.71480863  0.13438432    -0.29500
C1721       C  0.02105813  0.67546114  0.19512003    -0.03800
C1722       C  0.01311530  0.66226372  0.17349696    -0.40300
H1723       H  0.04949896  0.68866206  0.23650733     0.12500
H1724       H  0.07441538  0.70427643  0.20503280     0.12100
H1725       H  0.04998012  0.70139995  0.07791041     0.11500
H1726       H  0.02503858  0.68597750  0.10977162     0.11800
H1727       H  0.07757081  0.71631773  0.08287876     0.14500
H1728       H  0.09834792  0.71077596  0.16755234     0.13300
H1729       H  0.01776025  0.67790532  0.22915606     0.11000
H1730       H  0.01739277  0.65882612  0.14069489     0.13000
C1731       C  0.16341212  0.78050982  0.76906344     0.19100
C1732       C  0.15651131  0.76480126  0.78542015    -0.19000
C1733       C  0.15700957  0.76126799  0.82998991    -0.11300
C1734       C  0.16452964  0.77336216  0.85926888     0.21300
C1735       C  0.17255902  0.78850844  0.84283908    -0.20600
C1736       C  0.17194878  0.79214258  0.79805731    -0.11500
C1737       C  0.16309686  0.77064465  0.90699691    -0.15600
C1738       C  0.14788961  0.76503592  0.92416713    -0.29500
C1739       C  0.16097807  0.78420458  0.72188541    -0.03800
C1740       C  0.16186849  0.80032412  0.70438854    -0.40300
H1741       H  0.15017803  0.75545466  0.76380114     0.12500
H1742       H  0.15118413  0.74920952  0.84171823     0.12100
H1743       H  0.17867601  0.79785201  0.86483857     0.11500
H1744       H  0.17802784  0.80408141  0.78657860     0.11800
H1745       H  0.17404823  0.77410694  0.92802964     0.14500
H1746       H  0.13670060  0.76295035  0.90275478     0.13300
H1747       H  0.15717101  0.77325705  0.70104618     0.11000
H1748       H  0.16523875  0.81162756  0.72432559     0.13000
C1749       C  0.14511544  0.77422323  0.26433647     0.19100
C1750       C  0.15738761  0.76816181  0.29504725    -0.19000
C1751       C  0.15522583  0.77190023  0.33963671    -0.11300
C1752       C  0.14073766  0.78181961  0.35438963     0.21300
C1753       C  0.12861938  0.78788417  0.32348340    -0.20600
C1754       C  0.13083964  0.78424811  0.27908433    -0.11500
C1755       C  0.13742446  0.78606042  0.40129435    -0.15600
C1756       C  0.14914083  0.78400198  0.43375806    -0.29500
C1757       C  0.14671176  0.77066598  0.21669099    -0.03800
C1758       C  0.15503080  0.75663800  0.19950456    -0.40300
H1759       H  0.16876277  0.76069975  0.28478159     0.12500
H1760       H  0.16482821  0.76679695  0.36212432     0.12100
H1761       H  0.11734406  0.79554615  0.33370990     0.11500
H1762       H  0.12122378  0.78913646  0.25617079     0.11800
H1763       H  0.12476326  0.79184280  0.40925847     0.14500
H1764       H  0.16219935  0.77902078  0.42705869     0.13300
H1765       H  0.13956971  0.77932018  0.19493027     0.11000
H1766       H  0.16121594  0.74708788  0.22062036     0.13000
C1767       C  0.40138347  0.81155072  0.91952055     0.19100
C1768       C  0.39909256  0.82892519  0.93390154    -0.19000
C1769       C  0.41032983  0.84228244  0.91966036    -0.11300
C1770       C  0.42403320  0.83855114  0.89011648     0.21300
C1771       C  0.42630282  0.82116926  0.87579691    -0.20600
C1772       C  0.41508557  0.80784313  0.89000700    -0.11500
C1773       C  0.43612072  0.85222892  0.87274563    -0.15600
C1774       C  0.43274404  0.86958186  0.87356701    -0.29500
C1775       C  0.38909078  0.79776635  0.93538956    -0.03800
C1776       C  0.39310403  0.78056541  0.93579510    -0.40300
H1777       H  0.38865250  0.83215622  0.95660955     0.12500
H1778       H  0.40827051  0.85538470  0.93230225     0.12100
H1779       H  0.43665144  0.81790857  0.85285454     0.11500
H1780       H  0.41703960  0.79477524  0.87699024     0.11800
H1781       H  0.44773994  0.84766610  0.85546647     0.14500
H1782       H  0.42080434  0.87455721  0.88835040     0.13300
H1783       H  0.37660578  0.80201726  0.94901772     0.11000
H1784       H  0.40589723  0.77612028  0.92481186     0.13000
C1785       C  0.34330866  0.75761809  0.76656184     0.19100
C1786       C  0.33893467  0.77348991  0.74628633    -0.19000
C1787       C  0.34198587  0.77586077  0.70167899    -0.11300
C1788       C  0.34985352  0.76250200  0.67662058     0.21300
C1789       C  0.35436151  0.74666962  0.69684037    -0.20600
C1790       C  0.35094268  0.74414016  0.74131893    -0.11500
C1791       C  0.35436441  0.76534779  0.63007295    -0.15600
C1792       C  0.34337710  0.77364113  0.60286700    -0.29500
C1793       C  0.34154611  0.75626868  0.81471052    -0.03800
C1794       C  0.33911567  0.74102418  0.83595373    -0.40300
H1795       H  0.33335096  0.78417811  0.76518165     0.12500
H1796       H  0.33876058  0.78836642  0.68711418     0.12100
H1797       H  0.36063532  0.73629692  0.67822265     0.11500
H1798       H  0.35497084  0.73194398  0.75618471     0.11800
H1799       H  0.36675895  0.76024888  0.61783996     0.14500
H1800       H  0.33042851  0.77746653  0.61440107     0.13300
H1801       H  0.34269282  0.76837012  0.83344715     0.11000
H1802       H  0.33694414  0.72895888  0.81773928     0.13000
C1803       C  0.34038385  0.77784089  0.26400071     0.19100
C1804       C  0.35181523  0.76570420  0.24451085    -0.19000
C1805       C  0.35177760  0.76309005  0.19944405    -0.11300
C1806       C  0.34017415  0.77249534  0.17265927     0.21300
C1807       C  0.32834140  0.78429121  0.19212104    -0.20600
C1808       C  0.32852969  0.78709185  0.23743986    -0.11500
C1809       C  0.34000419  0.76951639  0.12468858    -0.15600
C1810       C  0.35497228  0.76631466  0.10281737    -0.29500
C1811       C  0.34098590  0.77987253  0.31218042    -0.03800
C1812       C  0.33625362  0.79453772  0.33382873    -0.40300
H1813       H  0.36088878  0.75822893  0.26426606     0.12500
H1814       H  0.36064624  0.75342846  0.18569280     0.12100
H1815       H  0.31907863  0.79144233  0.17220347     0.11500
H1816       H  0.31919716  0.79619650  0.25155982     0.11800
H1817       H  0.32754043  0.76965952  0.10752637     0.14500
H1818       H  0.36740392  0.76716373  0.12004593     0.13300
H1819       H  0.34672918  0.76911960  0.33045725     0.11000
H1820       H  0.33152781  0.80591078  0.31621855     0.13000
C1821       C  0.23080742  0.73651049  0.03891510     0.19100
C1822       C  0.24507990  0.73518607  0.06768014    -0.19000
C1823       C  0.26234259  0.73426540  0.05170673    -0.11300
C1824       C  0.26569507  0.73524951  0.00659638     0.21300
C1825       C  0.25140041  0.73658270  0.97787441    -0.20600
C1826       C  0.23411885  0.73691426  0.99376951    -0.11500
C1827       C  0.28392723  0.73657910  0.98911308    -0.15600
C1828       C  0.29755024  0.72731062  0.00496884    -0.29500
C1829       C  0.21276610  0.73920250  0.05649182    -0.03800
C1830       C  0.19861160  0.73077145  0.04046864    -0.40300
H1831       H  0.24286295  0.73507332  0.10262482     0.12500
H1832       H  0.27308804  0.73360264  0.07471520     0.12100
H1833       H  0.25363713  0.73757564  0.94303302     0.11500
H1834       H  0.22338800  0.73828663  0.97090455     0.11800
H1835       H  0.28609398  0.74517642  0.96140683     0.14500
H1836       H  0.29524535  0.71758665  0.03015807     0.13300
H1837       H  0.21116227  0.74813167  0.08399198     0.11000
H1838       H  0.20036305  0.72068766  0.01562797     0.13000
C1839       C  0.57487496  0.68756286  0.35219887     0.19100
C1840       C  0.57245531  0.66930764  0.35312341    -0.19000
C1841       C  0.55652500  0.66178377  0.34029886    -0.11300
C1842       C  0.54253126  0.67237577  0.32613787     0.21300
C1843       C  0.54520196  0.69055760  0.32318670    -0.20600
C1844       C  0.56116164  0.69811434  0.33614306    -0.11500
C1845       C  0.52523274  0.66477330  0.31332556    -0.15600
C1846       C  0.51917428  0.64961559  0.32997419    -0.29500
C1847       C  0.59170997  0.69488257  0.36922199    -0.03800
C1848       C  0.59378201  0.71163258  0.38257458    -0.40300
H1849       H  0.58285117  0.66081010  0.36455431     0.12500
H1850       H  0.55532225  0.64764532  0.34123004     0.12100
H1851       H  0.53480240  0.69897840  0.31146087     0.11500
H1852       H  0.56262079  0.71217204  0.33336379     0.11800
H1853       H  0.51714543  0.67200787  0.29045567     0.14500
H1854       H  0.52678271  0.64277929  0.35449755     0.13300
H1855       H  0.60239599  0.68570017  0.37450506     0.11000
H1856       H  0.58311371  0.72093945  0.37964457     0.13000
C1857       C  0.40343257  0.72362243  0.42460120     0.19100
C1858       C  0.42012556  0.71805648  0.43813033    -0.19000
C1859       C  0.42668627  0.70156715  0.42560243    -0.11300
C1860       C  0.41676666  0.69030727  0.39852658     0.21300
C1861       C  0.40004483  0.69585780  0.38524181    -0.20600
C1862       C  0.39349402  0.71230876  0.39777469    -0.11500
C1863       C  0.42347367  0.67298929  0.38232628    -0.15600
C1864       C  0.44068353  0.66925409  0.37826011    -0.29500
C1865       C  0.39684774  0.74130381  0.43844603    -0.03800
C1866       C  0.37961791  0.74493797  0.44260288    -0.40300
H1867       H  0.42806572  0.72643928  0.45885895     0.12500
H1868       H  0.43945584  0.69770069  0.43750108     0.12100
H1869       H  0.39213717  0.68757520  0.36419032     0.11500
H1870       H  0.38079013  0.71622825  0.38553120     0.11800
H1871       H  0.41399519  0.66375587  0.36895389     0.14500
H1872       H  0.45037771  0.67892317  0.38805940     0.13300
H1873       H  0.40639754  0.75125394  0.44763593     0.11000
H1874       H  0.37005817  0.73464427  0.43660462     0.13000
C1875       C  0.37517295  0.66601001  0.11388177     0.19100
C1876       C  0.38725111  0.65245291  0.10571848    -0.19000
C1877       C  0.39740037  0.64559501  0.13975670    -0.11300
C1878       C  0.39559114  0.65228004  0.18241575     0.21300
C1879       C  0.38243964  0.66463678  0.19113492    -0.20600
C1880       C  0.37206040  0.67116504  0.15744903    -0.11500
C1881       C  0.40872863  0.64867536  0.21676131    -0.15600
C1882       C  0.41662740  0.63310020  0.22210731    -0.29500
C1883       C  0.36796887  0.67615485  0.07648247    -0.03800
C1884       C  0.36496234  0.69349016  0.08034820    -0.40300
H1885       H  0.38977459  0.64808706  0.07257436     0.12500
H1886       H  0.40753222  0.63610780  0.13209970     0.12100
H1887       H  0.38066594  0.66978273  0.22389686     0.11500
H1888       H  0.36224735  0.68092184  0.16544489     0.11800
H1889       H  0.41206200  0.65944029  0.23869937     0.14500
H1890       H  0.41246784  0.62174921  0.20317522     0.13300
H1891       H  0.36799495  0.67015972  0.04419470     0.11000
H1892       H  0.36654424  0.69986537  0.11185551     0.13000
C1893       C  0.42316133  0.34060975  0.10188067     0.19100
C1894       C  0.40640752  0.33478751  0.11410767    -0.19000
C1895       C  0.40062242  0.31798284  0.10271582    -0.11300
C1896       C  0.41151735  0.30651291  0.07869740     0.21300
C1897       C  0.42797515  0.31261489  0.06476061    -0.20600
C1898       C  0.43379468  0.32945985  0.07627928    -0.11500
C1899       C  0.40569618  0.28852536  0.06593977    -0.15600
C1900       C  0.39331109  0.27969841  0.08819535    -0.29500
C1901       C  0.42912094  0.35812640  0.11768432    -0.03800
C1902       C  0.44611649  0.36219527  0.12394767    -0.40300
H1903       H  0.39783358  0.34318344  0.13322556     0.12500
H1904       H  0.38749916  0.31420524  0.11234559     0.12100
H1905       H  0.43643488  0.30425095  0.04527127     0.11500
H1906       H  0.44655598  0.33367375  0.06490583     0.11800
H1907       H  0.41144678  0.28258862  0.03692577     0.14500
H1908       H  0.38773606  0.28531326  0.11772993     0.13300
H1909       H  0.41914282  0.36719511  0.12943718     0.11000
H1910       H  0.45627978  0.35281804  0.11542954     0.13000
C1911       C  0.38869250  0.35428889  0.40356851     0.19100
C1912       C  0.38643742  0.35370327  0.35815239    -0.19000
C1913       C  0.39676708  0.36416868  0.33091002    -0.11300
C1914       C  0.40994665  0.37491740  0.34870859     0.21300
C1915       C  0.41188241  0.37587400  0.39419044    -0.20600
C1916       C  0.40112903  0.36585962  0.42152822    -0.11500
C1917       C  0.42339329  0.38291256  0.32022433    -0.15600
C1918       C  0.41948498  0.39107318  0.28277223    -0.29500
C1919       C  0.38064938  0.34047180  0.43068351    -0.03800
C1920       C  0.37423546  0.34328663  0.47100925    -0.40300
H1921       H  0.37717859  0.34458441  0.34367917     0.12500
H1922       H  0.39531472  0.36290786  0.29586855     0.12100
H1923       H  0.42216513  0.38387784  0.40844644     0.11500
H1924       H  0.40343746  0.36616673  0.45639968     0.11800
H1925       H  0.43706130  0.38161628  0.32988777     0.14500
H1926       H  0.40592844  0.39384231  0.27431082     0.13300
H1927       H  0.38108018  0.32713588  0.41784914     0.11000
H1928       H  0.37242793  0.35653169  0.48348988     0.13000
C1929       C  0.44949670  0.53228879  0.28881962     0.19100
C1930       C  0.43509157  0.52101078  0.28267859    -0.19000
C1931       C  0.43771392  0.50304460  0.27384509    -0.11300
C1932       C  0.45482326  0.49603289  0.27209077     0.21300
C1933       C  0.46907405  0.50722345  0.28035896    -0.20600
C1934       C  0.46648730  0.52509470  0.28826325    -0.11500
C1935       C  0.45865569  0.47724375  0.26210286    -0.15600
C1936       C  0.44863136  0.46684490  0.23648749    -0.29500
C1937       C  0.44700635  0.55149675  0.29640300    -0.03800
C1938       C  0.45785664  0.56314116  0.27738193    -0.40300
H1939       H  0.42185649  0.52617412  0.28374442     0.12500
H1940       H  0.42639719  0.49469769  0.26878650     0.12100
H1941       H  0.48236421  0.50217122  0.27987640     0.11500
H1942       H  0.47784535  0.53330871  0.29423921     0.11800
H1943       H  0.47125053  0.47225526  0.27311642     0.14500
H1944       H  0.43641264  0.47178939  0.22319254     0.13300
H1945       H  0.43666703  0.55595962  0.31823330     0.11000
H1946       H  0.46744846  0.55827106  0.25394234     0.13000
C1947       C  0.59762288  0.72319827  0.88174252     0.19100
C1948       C  0.60259960  0.70560850  0.87677776    -0.19000
C1949       C  0.59015249  0.69289725  0.86546327    -0.11300
C1950       C  0.57260423  0.69768329  0.85782974     0.21300
C1951       C  0.56776190  0.71536943  0.86114375    -0.20600
C1952       C  0.58010672  0.72801846  0.87361327    -0.11500
C1953       C  0.55958874  0.68448406  0.84340512    -0.15600
C1954       C  0.55871429  0.66849315  0.86155011    -0.29500
C1955       C  0.61084605  0.73635329  0.89543494    -0.03800
C1956       C  0.60691158  0.74877882  0.92501589    -0.40300
H1957       H  0.61606384  0.70166954  0.88241091     0.12500
H1958       H  0.59430511  0.67938250  0.86179505     0.12100
H1959       H  0.55438471  0.71934922  0.85451698     0.11500
H1960       H  0.57603545  0.74159283  0.87628248     0.11800
H1961       H  0.55096556  0.68784343  0.81649723     0.14500
H1962       H  0.56673979  0.66556774  0.88989106     0.13300
H1963       H  0.62419714  0.73513045  0.88325145     0.11000
H1964       H  0.59390110  0.74900180  0.93964185     0.13000
C1965       C  0.60771146  0.67513149  0.59519715     0.19100
C1966       C  0.60644702  0.67702230  0.64056838    -0.19000
C1967       C  0.59541081  0.66608842  0.66460082    -0.11300
C1968       C  0.58507727  0.65331591  0.64344621     0.21300
C1969       C  0.58656651  0.65122046  0.59807148    -0.20600
C1970       C  0.59801491  0.66188080  0.57412339    -0.11500
C1971       C  0.57138379  0.64361511  0.66786860    -0.15600
C1972       C  0.57400114  0.63851638  0.70919523    -0.29500
C1973       C  0.61653602  0.68899104  0.56989317    -0.03800
C1974       C  0.62631258  0.68582033  0.53424196    -0.40300
H1975       H  0.61352666  0.68741352  0.65721529     0.12500
H1976       H  0.59418620  0.66836958  0.69939678     0.12100
H1977       H  0.57853643  0.64165318  0.58108304     0.11500
H1978       H  0.59842479  0.66053704  0.53891751     0.11800
H1979       H  0.55868281  0.64162521  0.65253535     0.14500
H1980       H  0.58702345  0.63971987  0.72333365     0.13300
H1981       H  0.61413691  0.70249206  0.57993658     0.11000
H1982       H  0.63003144  0.67250682  0.52541294     0.13000
C1983       C  0.42868079  0.68862192  0.89983447     0.19100
C1984       C  0.44055582  0.67799730  0.92263835    -0.19000
C1985       C  0.45472285  0.67008994  0.90112289    -0.11300
C1986       C  0.45759738  0.67300128  0.85643036     0.21300
C1987       C  0.44600763  0.68396178  0.83368434    -0.20600
C1988       C  0.43152627  0.69153883  0.85501245    -0.11500
C1989       C  0.47298765  0.66511864  0.83380231    -0.15600
C1990       C  0.47737404  0.64819301  0.83951656    -0.29500
C1991       C  0.41417720  0.69721412  0.92456635    -0.03800
C1992       C  0.39845736  0.70132650  0.90724590    -0.40300
H1993       H  0.43881994  0.67575095  0.95727636     0.12500
H1994       H  0.46367103  0.66199184  0.91964047     0.12100
H1995       H  0.44809797  0.68654247  0.79932224     0.11500
H1996       H  0.42289112  0.70002873  0.83671433     0.11800
H1997       H  0.48037071  0.67311422  0.81093717     0.14500
H1998       H  0.46894777  0.63987928  0.85926334     0.13300
H1999       H  0.41635177  0.69961800  0.95915143     0.11000
H2000       H  0.39560902  0.69802989  0.87346274     0.13000
C2001       C  0.50828425  0.60358107  0.01314905     0.19100
C2002       C  0.49127586  0.60332451  0.03078269    -0.19000
C2003       C  0.48863298  0.60493269  0.07569160    -0.11300
C2004       C  0.50299267  0.60689150  0.10403423     0.21300
C2005       C  0.52003286  0.60618674  0.08693394    -0.20600
C2006       C  0.52270973  0.60472367  0.04185709    -0.11500
C2007       C  0.50034083  0.61019759  0.15125474    -0.15600
C2008       C  0.48728089  0.62060573  0.16536684    -0.29500
C2009       C  0.51010807  0.60399168  0.96481784    -0.03800
C2010       C  0.52544687  0.60270464  0.94323319    -0.40300
H2011       H  0.47993546  0.60230712  0.00962845     0.12500
H2012       H  0.47532497  0.60486472  0.08817554     0.12100
H2013       H  0.53126917  0.60753115  0.10831280     0.11500
H2014       H  0.53605514  0.60513771  0.03002941     0.11800
H2015       H  0.50958505  0.60465597  0.17435952     0.14500
H2016       H  0.47875524  0.62692516  0.14178660     0.13300
H2017       H  0.49819435  0.60610177  0.94610144     0.11000
H2018       H  0.53757654  0.60011889  0.96035279     0.13000
C2019       C  0.49072858  0.61436711  0.59986069     0.19100
C2020       C  0.49971057  0.61981849  0.56235669    -0.19000
C2021       C  0.49289992  0.61632842  0.52095737    -0.11300
C2022       C  0.47670449  0.60768792  0.51629340     0.21300
C2023       C  0.46759784  0.60232724  0.55378970    -0.20600
C2024       C  0.47467793  0.60540021  0.59534108    -0.11500
C2025       C  0.46850769  0.60596488  0.47270162    -0.15600
C2026       C  0.47804496  0.60208445  0.43700366    -0.29500
C2027       C  0.49794444  0.61918676  0.64312845    -0.03800
C2028       C  0.49728039  0.60844525  0.67770317    -0.40300
H2029       H  0.51199196  0.62690467  0.56514479     0.12500
H2030       H  0.49995931  0.62105168  0.49262945     0.12100
H2031       H  0.45495314  0.59592138  0.55088882     0.11500
H2032       H  0.46731672  0.60137325  0.62386175     0.11800
H2033       H  0.45461275  0.60891014  0.46966572     0.14500
H2034       H  0.49163769  0.59803123  0.44056431     0.13300
H2035       H  0.50502931  0.63153374  0.64580880     0.11000
H2036       H  0.49155738  0.59544652  0.67437109     0.13000
C2037       C  0.43383784  0.33155801  0.64335964     0.19100
C2038       C  0.43471803  0.34281855  0.67958571    -0.19000
C2039       C  0.45065278  0.35037421  0.69201510    -0.11300
C2040       C  0.46605518  0.34714491  0.66779433     0.21300
C2041       C  0.46535848  0.33532581  0.63258739    -0.20600
C2042       C  0.44937642  0.32766148  0.62024109    -0.11500
C2043       C  0.48266422  0.35663171  0.67772511    -0.15600
C2044       C  0.48229916  0.37339993  0.69141662    -0.29500
C2045       C  0.41633807  0.32542723  0.62840149    -0.03800
C2046       C  0.41385026  0.31050149  0.60567428    -0.40300
H2047       H  0.42297063  0.34597430  0.69799689     0.12500
H2048       H  0.45082965  0.35896296  0.72027514     0.12100
H2049       H  0.47703662  0.33260307  0.61350997     0.11500
H2050       H  0.44912143  0.31933167  0.59153299     0.11800
H2051       H  0.49515235  0.35022802  0.67137465     0.14500
H2052       H  0.46972914  0.38001639  0.69454771     0.13300
H2053       H  0.40510430  0.33369311  0.63598621     0.11000
H2054       H  0.42476558  0.30164847  0.59979797     0.13000
C2055       C  0.50001165  0.42291766  0.40912802     0.19100
C2056       C  0.51440735  0.43134564  0.42849220    -0.19000
C2057       C  0.51657213  0.43126574  0.47397407    -0.11300
C2058       C  0.50425206  0.42275810  0.50121212     0.21300
C2059       C  0.48954132  0.41493177  0.48171936    -0.20600
C2060       C  0.48737204  0.41507234  0.43645304    -0.11500
C2061       C  0.50604564  0.42156095  0.54975032    -0.15600
C2062       C  0.52058092  0.42619320  0.57182851    -0.29500
C2063       C  0.49815167  0.42265612  0.36062024    -0.03800
C2064       C  0.48982920  0.40940342  0.34029534    -0.40300
H2065       H  0.52414211  0.43779093  0.40833743     0.12500
H2066       H  0.52789382  0.43794854  0.48713779     0.12100
H2067       H  0.47966786  0.40856502  0.50161134     0.11500
H2068       H  0.47562559  0.40915088  0.42310714     0.11800
H2069       H  0.49515187  0.41597308  0.56793639     0.14500
H2070       H  0.53186176  0.43138711  0.55470694     0.13300
H2071       H  0.50361413  0.43336307  0.34165082     0.11000
H2072       H  0.48510005  0.39841624  0.35944698     0.13000
C2073       C  0.49288601  0.43346475  0.00417098     0.19100
C2074       C  0.50598541  0.42233367  0.98760440    -0.19000
C2075       C  0.50887002  0.42090291  0.94257672    -0.11300
C2076       C  0.49887648  0.43082348  0.91297618     0.21300
C2077       C  0.48633316  0.44259420  0.92966147    -0.20600
C2078       C  0.48319681  0.44376436  0.97478319    -0.11500
C2079       C  0.50163053  0.42927340  0.86482751    -0.15600
C2080       C  0.50594622  0.41389437  0.84580261    -0.29500
C2081       C  0.48940420  0.43363522  0.05205507    -0.03800
C2082       C  0.47303751  0.43429707  0.06851402    -0.40300
H2083       H  0.51373959  0.41438577  0.00955101     0.12500
H2084       H  0.51905817  0.41213075  0.93103473     0.12100
H2085       H  0.47867631  0.45060576  0.90766799     0.11500
H2086       H  0.47324859  0.45274031  0.98666606     0.11800
H2087       H  0.49969904  0.44081880  0.84474539     0.14500
H2088       H  0.50682697  0.40221016  0.86584860     0.13300
H2089       H  0.50022210  0.43061481  0.07386445     0.11000
H2090       H  0.46195851  0.43518711  0.04636935     0.13000
C2091       C  0.54280316  0.53396900  0.76087931     0.19100
C2092       C  0.53247568  0.52517511  0.73006130    -0.19000
C2093       C  0.53549759  0.50756427  0.72041007    -0.11300
C2094       C  0.54855242  0.49807280  0.74264845     0.21300
C2095       C  0.55954523  0.50709046  0.77192860    -0.20600
C2096       C  0.55670394  0.52495718  0.78103871    -0.11500
C2097       C  0.55022146  0.47873043  0.73642176    -0.15600
C2098       C  0.53586602  0.46900555  0.72826106    -0.29500
C2099       C  0.53763876  0.55199953  0.77361257    -0.03800
C2100       C  0.54912547  0.56475370  0.78356310    -0.40300
H2101       H  0.52186146  0.53192764  0.71371709     0.12500
H2102       H  0.52733171  0.50133831  0.69594502     0.12100
H2103       H  0.56983206  0.50015577  0.78903091     0.11500
H2104       H  0.56480176  0.53145688  0.80522812     0.11800
H2105       H  0.56299847  0.47252709  0.73917995     0.14500
H2106       H  0.52310140  0.47534645  0.72811615     0.13300
H2107       H  0.52372397  0.55512702  0.77253630     0.11000
H2108       H  0.56314283  0.56231908  0.78127309     0.13000
C2109       C  0.58856795  0.19806616  0.13162884     0.19100
C2110       C  0.58517889  0.21528883  0.14563563    -0.19000
C2111       C  0.59422776  0.22944949  0.12754705    -0.11300
C2112       C  0.60698146  0.22667423  0.09496201     0.21300
C2113       C  0.61037491  0.20944467  0.08087107    -0.20600
C2114       C  0.60125070  0.19526368  0.09885689    -0.11500
C2115       C  0.61781180  0.24123580  0.07728342    -0.15600
C2116       C  0.61276352  0.25816231  0.07805599    -0.29500
C2117       C  0.57958045  0.18342627  0.15442204    -0.03800
C2118       C  0.57774280  0.16715750  0.13772519    -0.40300
H2119       H  0.57567436  0.21778483  0.17127256     0.12500
H2120       H  0.59160317  0.24242302  0.14041079     0.12100
H2121       H  0.62031374  0.20692434  0.05628466     0.11500
H2122       H  0.60464129  0.18216411  0.08806196     0.11800
H2123       H  0.63040738  0.23783920  0.06282715     0.14500
H2124       H  0.59983835  0.26177675  0.08993343     0.13300
H2125       H  0.57415186  0.18625739  0.18653644     0.11000
H2126       H  0.58223163  0.16415279  0.10490366     0.13000
C2127       C  0.61927487  0.36523803  0.90349288     0.19100
C2128       C  0.61899766  0.36570333  0.85781734    -0.19000
C2129       C  0.60668662  0.37599451  0.83605878    -0.11300
C2130       C  0.59416181  0.38574833  0.85972563     0.21300
C2131       C  0.59475571  0.38569565  0.90544089    -0.20600
C2132       C  0.60732804  0.37567865  0.92723002    -0.11500
C2133       C  0.57894468  0.39371981  0.83738441    -0.15600
C2134       C  0.58016359  0.40022033  0.79687824    -0.29500
C2135       C  0.62989826  0.35165365  0.92536586    -0.03800
C2136       C  0.63618739  0.35368886  0.96595239    -0.40300
H2137       H  0.62783974  0.35750384  0.83895452     0.12500
H2138       H  0.60624371  0.37531923  0.80076565     0.12100
H2139       H  0.58504623  0.39285992  0.92427110     0.11500
H2140       H  0.60686263  0.37517487  0.96253472     0.11800
H2141       H  0.56620737  0.39286240  0.85327474     0.14500
H2142       H  0.59299178  0.40199753  0.78198946     0.13300
H2143       H  0.63115112  0.33902915  0.90897032     0.11000
H2144       H  0.63577732  0.36650373  0.98162527     0.13000
C2145       C  0.57572489  0.35076871  0.12509950     0.19100
C2146       C  0.56310957  0.35901269  0.09888238    -0.19000
C2147       C  0.54834479  0.36695289  0.11745043    -0.11300
C2148       C  0.54575797  0.36674358  0.16289017     0.21300
C2149       C  0.55824010  0.35834839  0.18921695    -0.20600
C2150       C  0.57316906  0.35053297  0.17062364    -0.11500
C2151       C  0.52972810  0.37441253  0.18313826    -0.15600
C2152       C  0.52157001  0.38853641  0.16652226    -0.29500
C2153       C  0.59067535  0.34183070  0.10299431    -0.03800
C2154       C  0.60587404  0.33714791  0.12225978    -0.40300
H2155       H  0.56460699  0.35919580  0.06369247     0.12500
H2156       H  0.53874086  0.37281656  0.09601177     0.12100
H2157       H  0.55641039  0.35781844  0.22426624     0.11500
H2158       H  0.58234684  0.34395945  0.19186751     0.11800
H2159       H  0.52479690  0.36857205  0.21303689     0.14500
H2160       H  0.52719188  0.39522737  0.13856648     0.13300
H2161       H  0.58918390  0.33940311  0.06817549     0.11000
H2162       H  0.60825727  0.34010812  0.15642323     0.13000
C2163       C  0.77669623  0.30751574  0.02517036     0.19100
C2164       C  0.76890252  0.29397580  0.04931147    -0.19000
C2165       C  0.75074529  0.29293689  0.05401236    -0.11300
C2166       C  0.73973304  0.30551458  0.03517321     0.21300
C2167       C  0.74742442  0.31931425  0.01128509    -0.20600
C2168       C  0.76576407  0.32030092  0.00628773    -0.11500
C2169       C  0.72043744  0.30316740  0.04085905    -0.15600
C2170       C  0.70815441  0.31555881  0.03388546    -0.29500
C2171       C  0.79614610  0.30701184  0.02009566    -0.03800
C2172       C  0.80591890  0.31699749  0.99303198    -0.40300
H2173       H  0.77690343  0.28390311  0.06420470     0.12500
H2174       H  0.74527034  0.28215512  0.07253297     0.12100
H2175       H  0.73940306  0.32915615  0.99573806     0.11500
H2176       H  0.77120949  0.33098479  0.98754144     0.11800
H2177       H  0.71616532  0.29053771  0.05338518     0.14500
H2178       H  0.71186261  0.32854207  0.02286374     0.13300
H2179       H  0.80279915  0.29681334  0.03841639     0.11000
H2180       H  0.80004040  0.32739334  0.97398720     0.13000
C2181       C  0.93094905  0.20105682  0.89613816     0.19100
C2182       C  0.92487924  0.21552449  0.87248000    -0.19000
C2183       C  0.91670149  0.22954853  0.89371005    -0.11300
C2184       C  0.91453583  0.22949534  0.93931613     0.21300
C2185       C  0.92129317  0.21541055  0.96333386    -0.20600
C2186       C  0.92933003  0.20121542  0.94195860    -0.11500
C2187       C  0.90527612  0.24406653  0.96202028    -0.15600
C2188       C  0.89139721  0.25197606  0.94363850    -0.29500
C2189       C  0.93928429  0.18640936  0.87164333    -0.03800
C2190       C  0.93982590  0.16972559  0.88578820    -0.40300
H2191       H  0.92626816  0.21588257  0.83728035     0.12500
H2192       H  0.91218731  0.24049778  0.87436394     0.12100
H2193       H  0.92004421  0.21524287  0.99856316     0.11500
H2194       H  0.93440476  0.19055134  0.96137550     0.11800
H2195       H  0.90943356  0.24783256  0.99465426     0.14500
H2196       H  0.88654454  0.24722227  0.91240841     0.13300
H2197       H  0.94449572  0.18940419  0.83946506     0.11000
H2198       H  0.93408505  0.16622773  0.91700441     0.13000
C2199       C  0.91187913  0.38797212  0.18155425     0.19100
C2200       C  0.90933700  0.39015869  0.13659163    -0.19000
C2201       C  0.89913926  0.37818377  0.11299472    -0.11300
C2202       C  0.89171284  0.36358436  0.13396225     0.21300
C2203       C  0.89382677  0.36166922  0.17908437    -0.20600
C2204       C  0.90364311  0.37386803  0.20285566    -0.11500
C2205       C  0.88450048  0.34880994  0.10842002    -0.15600
C2206       C  0.87509575  0.35098390  0.07188272    -0.29500
C2207       C  0.92546904  0.39850002  0.20400645    -0.03800
C2208       C  0.92486265  0.40204248  0.24696320    -0.40300
H2209       H  0.91586288  0.40071376  0.11943611     0.12500
H2210       H  0.89812544  0.37966183  0.07793532     0.12100
H2211       H  0.88850043  0.35030832  0.19560198     0.11500
H2212       H  0.90581813  0.37149752  0.23724743     0.11800
H2213       H  0.88803462  0.33563401  0.11864948     0.14500
H2214       H  0.87033186  0.36388942  0.06282560     0.13300
H2215       H  0.93710959  0.40194830  0.18534369     0.11000
H2216       H  0.91290570  0.39962934  0.26535439     0.13000
C2217       C  0.96602999  0.37424325  0.89494970     0.19100
C2218       C  0.96375889  0.36498095  0.93405294    -0.19000
C2219       C  0.94854872  0.35497311  0.94112553    -0.11300
C2220       C  0.93509807  0.35449980  0.90968045     0.21300
C2221       C  0.93720191  0.36414034  0.87112959    -0.20600
C2222       C  0.95260718  0.37369159  0.86349769    -0.11500
C2223       C  0.91819151  0.34531562  0.91800461    -0.15600
C2224       C  0.91718225  0.32957849  0.93768069    -0.29500
C2225       C  0.98219495  0.38481370  0.88758272    -0.03800
C2226       C  0.99073331  0.38424005  0.84915098    -0.40300
H2227       H  0.97383532  0.36537181  0.95894693     0.12500
H2228       H  0.94706946  0.34805107  0.97169548     0.12100
H2229       H  0.92689872  0.36423789  0.84680226     0.11500
H2230       H  0.95386388  0.38099835  0.83342440     0.11800
H2231       H  0.90621335  0.35175187  0.90746736     0.14500
H2232       H  0.92917842  0.32263686  0.94585570     0.13300
H2233       H  0.98744341  0.39260125  0.91435926     0.11000
H2234       H  0.98613053  0.37523918  0.82400010     0.13000
C2235       C  0.65285984  0.27421041  0.34899520     0.19100
C2236       C  0.66716306  0.28345703  0.33148217    -0.19000
C2237       C  0.66838157  0.28639479  0.28641381    -0.11300
C2238       C  0.65516157  0.28025665  0.25809814     0.21300
C2239       C  0.64065276  0.27148218  0.27586227    -0.20600
C2240       C  0.63939681  0.26864320  0.32072779    -0.11500
C2241       C  0.65605576  0.28224898  0.20989143    -0.15600
C2242       C  0.66506159  0.29501846  0.18955402    -0.29500
C2243       C  0.65232319  0.27035214  0.39658563    -0.03800
C2244       C  0.64408712  0.25609160  0.41234863    -0.40300
H2245       H  0.67763804  0.28799388  0.35256284     0.12500
H2246       H  0.67988825  0.29301745  0.27388213     0.12100
H2247       H  0.63019084  0.26682191  0.25489998     0.11500
H2248       H  0.62779857  0.26211700  0.33306416     0.11800
H2249       H  0.64793116  0.27349686  0.19039088     0.14500
H2250       H  0.67222859  0.30476063  0.20832493     0.13300
H2251       H  0.65952872  0.27887623  0.41873726     0.11000
H2252       H  0.63786885  0.24691174  0.39003168     0.13000
C2253       C  0.66644300  0.26373513  0.85332929     0.19100
C2254       C  0.67821661  0.26968985  0.82138314    -0.19000
C2255       C  0.67729944  0.26325848  0.77844349    -0.11300
C2256       C  0.66465952  0.25055445  0.76682579     0.21300
C2257       C  0.65346513  0.24405252  0.79940331    -0.20600
C2258       C  0.65429199  0.25056729  0.84207000    -0.11500
C2259       C  0.66268310  0.24356968  0.72155537    -0.15600
C2260       C  0.66834461  0.25190453  0.68545157    -0.29500
C2261       C  0.66673272  0.27156028  0.89796327    -0.03800
C2262       C  0.65175573  0.27428108  0.92023332    -0.40300
H2263       H  0.68786267  0.27963418  0.82942420     0.12500
H2264       H  0.68656348  0.26820791  0.75472945     0.12100
H2265       H  0.64381420  0.23406627  0.79166154     0.11500
H2266       H  0.64539613  0.24526241  0.86625583     0.11800
H2267       H  0.65530096  0.23145093  0.71766527     0.14500
H2268       H  0.67502792  0.26442744  0.68808673     0.13300
H2269       H  0.67911944  0.27613915  0.91136192     0.11000
H2270       H  0.63932484  0.27098968  0.90490061     0.13000
C2271       C  0.60950201  0.14641972  0.35966302     0.19100
C2272       C  0.61132276  0.14365340  0.40471315    -0.19000
C2273       C  0.62152573  0.15507285  0.43019752    -0.11300
C2274       C  0.62964568  0.16971402  0.41104708     0.21300
C2275       C  0.62851907  0.17196786  0.36576512    -0.20600
C2276       C  0.61873688  0.16033231  0.34018443    -0.11500
C2277       C  0.63577976  0.18462729  0.43806293    -0.15600
C2278       C  0.64419403  0.18303856  0.47635413    -0.29500
C2279       C  0.59567804  0.13689606  0.33500691    -0.03800
C2280       C  0.59692519  0.13373708  0.29190339    -0.40300
H2281       H  0.60412559  0.13318767  0.42050634     0.12500
H2282       H  0.62181569  0.15330215  0.46524924     0.12100
H2283       H  0.63438412  0.18335413  0.35051093     0.11500
H2284       H  0.61725179  0.16314016  0.30577481     0.11800
H2285       H  0.63199210  0.19766240  0.42722948     0.14500
H2286       H  0.64929314  0.17046686  0.48697658     0.13300
H2287       H  0.58349444  0.13397221  0.35199659     0.11000
H2288       H  0.60939945  0.13564195  0.27534257     0.13000
C2289       C  0.54948025  0.16860700  0.66781979     0.19100
C2290       C  0.56617036  0.16246612  0.65606313    -0.19000
C2291       C  0.57941881  0.17418177  0.64407891    -0.11300
C2292       C  0.57619711  0.19237485  0.64327008     0.21300
C2293       C  0.55944870  0.19852105  0.65467863    -0.20600
C2294       C  0.54622649  0.18679423  0.66708411    -0.11500
C2295       C  0.58950392  0.20495944  0.62665062    -0.15600
C2296       C  0.60684608  0.20179139  0.62845591    -0.29500
C2297       C  0.53549277  0.15565255  0.67782958    -0.03800
C2298       C  0.52183653  0.15929120  0.70414430    -0.40300
H2299       H  0.56890959  0.14851837  0.65565231     0.12500
H2300       H  0.59192394  0.16884260  0.63384253     0.12100
H2301       H  0.55652342  0.21241843  0.65340115     0.11500
H2302       H  0.53334271  0.19197709  0.67453834     0.11800
H2303       H  0.58481997  0.21676700  0.61070629     0.14500
H2304       H  0.61167789  0.19036950  0.64568352     0.13300
H2305       H  0.53664961  0.14260700  0.66360589     0.11000
H2306       H  0.52105479  0.17192224  0.72058122     0.13000
C2307       C  0.57881696  0.33786326  0.63356102     0.19100
C2308       C  0.57449503  0.32003982  0.63786922    -0.19000
C2309       C  0.58608257  0.30694698  0.62372749    -0.11300
C2310       C  0.60243601  0.31140213  0.60549659     0.21300
C2311       C  0.60683563  0.32921596  0.60139662    -0.20600
C2312       C  0.59510102  0.34234235  0.61489496    -0.11500
C2313       C  0.61541000  0.29772554  0.59255680    -0.15600
C2314       C  0.61055987  0.28209593  0.57585169    -0.29500
C2315       C  0.56687000  0.35124253  0.65300389    -0.03800
C2316       C  0.56600525  0.36811457  0.64007491    -0.40300
H2317       H  0.56218698  0.31622490  0.65283698     0.12500
H2318       H  0.58245472  0.29334872  0.62845684     0.12100
H2319       H  0.61943460  0.33297600  0.58793164     0.11500
H2320       H  0.59911072  0.35592082  0.61224051     0.11800
H2321       H  0.62928410  0.30088024  0.59511051     0.14500
H2322       H  0.59675865  0.27945551  0.56985950     0.13300
H2323       H  0.55852694  0.34696455  0.67973573     0.11000
H2324       H  0.57343655  0.37246863  0.61186763     0.13000
C2325       C  0.84274991  0.26916163  0.28098260     0.19100
C2326       C  0.84036748  0.25689493  0.24687456    -0.19000
C2327       C  0.84401263  0.26145393  0.20337677    -0.11300
C2328       C  0.85010163  0.27840529  0.19306604     0.21300
C2329       C  0.85183066  0.29073479  0.22708969    -0.20600
C2330       C  0.84808345  0.28622519  0.27031881    -0.11500
C2331       C  0.85566753  0.28378318  0.14823386    -0.15600
C2332       C  0.85272384  0.27470483  0.11091485    -0.29500
C2333       C  0.84065868  0.26457740  0.32807667    -0.03800
C2334       C  0.84382108  0.24839527  0.34364551    -0.40300
H2335       H  0.83584240  0.24372819  0.25367332     0.12500
H2336       H  0.84248372  0.25151280  0.17838498     0.12100
H2337       H  0.85641465  0.30390590  0.22032351     0.11500
H2338       H  0.84996080  0.29597520  0.29575872     0.11800
H2339       H  0.86255453  0.29624163  0.14588751     0.14500
H2340       H  0.84525447  0.26260012  0.11123658     0.13300
H2341       H  0.83870244  0.27526559  0.35121591     0.11000
H2342       H  0.84725006  0.23789058  0.32115155     0.13000
C2343       C  0.85696801  0.30114088  0.76155663     0.19100
C2344       C  0.87217609  0.29969657  0.73594117    -0.19000
C2345       C  0.87111805  0.29429736  0.69236502    -0.11300
C2346       C  0.85475565  0.29056792  0.67326716     0.21300
C2347       C  0.83944577  0.29302713  0.69802937    -0.20600
C2348       C  0.84052485  0.29809750  0.74200034    -0.11500
C2349       C  0.85363694  0.28356604  0.62805791    -0.15600
C2350       C  0.86465641  0.27089898  0.61457678    -0.29500
C2351       C  0.85878498  0.30569090  0.80852408    -0.03800
C2352       C  0.84812358  0.29913811  0.83951108    -0.40300
H2353       H  0.88496164  0.30222988  0.75007529     0.12500
H2354       H  0.88311200  0.29291028  0.67362638     0.12100
H2355       H  0.82669936  0.29044646  0.68375996     0.11500
H2356       H  0.82852486  0.29961497  0.76060121     0.11800
H2357       H  0.84316938  0.28803507  0.60680883     0.14500
H2358       H  0.87410047  0.26559365  0.63757306     0.13300
H2359       H  0.87013910  0.31341230  0.81825807     0.11000
H2360       H  0.83749361  0.29035832  0.83043221     0.13000
C2361       C  0.77375500  0.22183133  0.50446384     0.19100
C2362       C  0.76047994  0.22168610  0.47273691    -0.19000
C2363       C  0.74274333  0.22181920  0.48499586    -0.11300
C2364       C  0.73791714  0.22178385  0.52939081     0.21300
C2365       C  0.75119488  0.22094608  0.56103870    -0.20600
C2366       C  0.76892668  0.22113313  0.54880148    -0.11500
C2367       C  0.71921718  0.22260444  0.54365737    -0.15600
C2368       C  0.70691552  0.23159847  0.52151775    -0.29500
C2369       C  0.79247187  0.22301478  0.49051356    -0.03800
C2370       C  0.80435264  0.23245121  0.51313492    -0.40300
H2371       H  0.76384681  0.22195482  0.43836702     0.12500
H2372       H  0.73284671  0.22188982  0.45969729     0.12100
H2373       H  0.74783845  0.22060041  0.59541386     0.11500
H2374       H  0.77884005  0.22072082  0.57404490     0.11800
H2375       H  0.71577636  0.21675498  0.57481317     0.14500
H2376       H  0.71057159  0.23857564  0.49204764     0.13300
H2377       H  0.79614651  0.21747338  0.45903448     0.11000
H2378       H  0.80024981  0.23935790  0.54253784     0.13000
C2379       C  0.90641583  0.15165221  0.67698661     0.19100
C2380       C  0.89266809  0.16349332  0.68570116    -0.19000
C2381       C  0.88599742  0.17426386  0.65258289    -0.11300
C2382       C  0.89309514  0.17341970  0.61022904     0.21300
C2383       C  0.90589245  0.16077057  0.60083321    -0.20600
C2384       C  0.91220624  0.14973887  0.63346320    -0.11500
C2385       C  0.88924842  0.18687119  0.57680622    -0.15600
C2386       C  0.87339066  0.19415612  0.57049617    -0.29500
C2387       C  0.91566142  0.14308255  0.71430475    -0.03800
C2388       C  0.93246697  0.13774766  0.71108300    -0.40300
H2389       H  0.88778567  0.16515418  0.71870352     0.12500
H2390       H  0.87617773  0.18400602  0.66078818     0.12100
H2391       H  0.91138803  0.15974256  0.56826235     0.11500
H2392       H  0.92204951  0.14018535  0.62440805     0.11800
H2393       H  0.90006412  0.19072379  0.55568858     0.14500
H2394       H  0.86202658  0.18947676  0.58846856     0.13300
H2395       H  0.90959116  0.14367530  0.74642668     0.11000
H2396       H  0.93923371  0.13849784  0.68001583     0.13000
C2397       C  0.95750898  0.17389478  0.35013197     0.19100
C2398       C  0.95502650  0.19203165  0.34583649    -0.19000
C2399       C  0.93949595  0.19997371  0.36028589    -0.11300
C2400       C  0.92603807  0.18986929  0.37941656     0.21300
C2401       C  0.92818320  0.17161110  0.38157842    -0.20600
C2402       C  0.94371018  0.16368281  0.36715089    -0.11500
C2403       C  0.90984365  0.19780598  0.39846503    -0.15600
C2404       C  0.90892315  0.21465687  0.41151316    -0.29500
C2405       C  0.97447711  0.16601548  0.33598940    -0.03800
C2406       C  0.98084373  0.15115849  0.35338078    -0.40300
H2407       H  0.96527543  0.20014312  0.33190997     0.12500
H2408       H  0.93817043  0.21398533  0.35623299     0.12100
H2409       H  0.91793205  0.16345385  0.39533781     0.11500
H2410       H  0.94478830  0.14956540  0.36924544     0.11800
H2411       H  0.89885360  0.18914173  0.40544404     0.14500
H2412       H  0.92007995  0.22331993  0.40711045     0.13300
H2413       H  0.98222846  0.17297120  0.31177527     0.11000
H2414       H  0.97363024  0.14457491  0.37914746     0.13000
C2415       C  0.93677662  0.34023336  0.39961653     0.19100
C2416       C  0.92749371  0.32804382  0.37406409    -0.19000
C2417       C  0.91810441  0.31440996  0.39346896    -0.11300
C2418       C  0.91786394  0.31254498  0.43910282     0.21300
C2419       C  0.92771018  0.32428349  0.46472273    -0.20600
C2420       C  0.93699591  0.33810316  0.44526574    -0.11500
C2421       C  0.90776114  0.29820951  0.46029457    -0.15600
C2422       C  0.89259450  0.29212593  0.44352818    -0.29500
C2423       C  0.94603910  0.35476428  0.37689819    -0.03800
C2424       C  0.95021290  0.37027420  0.39552751    -0.40300
H2425       H  0.92731721  0.32919469  0.33881767     0.12500
H2426       H  0.91121061  0.30522594  0.37257800     0.12100
H2427       H  0.92799601  0.32290927  0.49990462     0.11500
H2428       H  0.94441985  0.34691299  0.46597543     0.11800
H2429       H  0.91259850  0.29295624  0.49091184     0.14500
H2430       H  0.88711171  0.29820775  0.41461896     0.13300
H2431       H  0.94833152  0.35305707  0.34208165     0.11000
H2432       H  0.94730587  0.37273754  0.42970884     0.13000
loop_ 
_geom_bond_atom_site_label_1 
_geom_bond_atom_site_label_2 
_geom_bond_distance 
_geom_bond_site_symmetry_2 
_ccdc_geom_bond_type 
O1          Cr19   1.973       .  S
O1            C9   1.256       .  A
O2          Cr19   2.026       .  S
O2            C3   1.272       .  A
C3            O4   1.259       .  A
C3         C2334   1.482       .  S
O4          Cr20   1.969       .  S
O5          Cr20   2.031       .  S
O5            C6   1.271       .  A
C6            O7   1.257       .  A
C6         C2404   1.476       .  S
O7          Cr21   1.964       .  S
O8          Cr21   2.014       .  S
O8            C9   1.264       .  A
C9         C2422   1.476       .  S
O10         Cr19   2.029       .  S
O10          C18   1.272       .  A
O11         Cr19   1.974       .  S
O11          C12   1.257       .  A
C12          O13   1.267       .  A
C12        C2370   1.480       .  S
O13         Cr20   2.025       .  S
O14         Cr20   1.988       .  S
O14          C15   1.261       .  A
C15          O16   1.268       .  A
C15        C2386   1.479       .  S
O16         Cr21   2.013       .  S
O17         Cr21   1.960       .  S
O17          C18   1.258       .  A
C18        C2350   1.474       .  S
Cr19         O22   1.769       .  S
Cr20         O22   1.776       .  S
Cr21         O22   1.770       .  S
O23         Cr41   1.985       .  S
O23          C31   1.261       .  A
O24         Cr41   2.017       .  S
O24          C25   1.268       .  A
C25          O26   1.262       .  A
C25        C2260   1.481       .  S
O26         Cr42   1.976       .  S
O27         Cr42   2.005       .  S
O27          C28   1.264       .  A
C28          O29   1.260       .  A
C28        C2296   1.474       .  S
O29         Cr43   1.978       .  S
O30         Cr43   2.002       .  S
O30          C31   1.263       .  A
C31        C2314   1.479       .  S
O32         Cr41   2.016       .  S
O32          C40   1.267       .  A
O33         Cr41   1.980       .  S
O33          C34   1.258       .  A
C34          O35   1.266       .  A
C34        C2368   1.482       .  S
O35         Cr42   2.018       .  S
O36         Cr42   1.991       .  S
O36          C37   1.263       .  A
C37          O38   1.265       .  A
C37        C2278   1.473       .  S
O38         Cr43   1.993       .  S
O39         Cr43   1.966       .  S
O39          C40   1.256       .  A
C40        C2244   1.474       .  S
Cr41         O44   1.778       .  S
Cr42         O44   1.781       .  S
Cr43         O44   1.772       .  S
O45         Cr63   2.023   1_554  S
O45          C53   1.266       .  A
O46         Cr63   1.960   1_554  S
O46          C47   1.258   1_554  A
C47          O48   1.270       .  A
C47        C2172   1.485       .  S
O48         Cr64   2.035       .  S
O49         Cr64   1.976   1_554  S
O49          C50   1.261       .  A
C50          O51   1.267       .  A
C50        C2206   1.469       .  S
O51         Cr65   1.997       .  S
O52         Cr65   1.975       .  S
O52          C53   1.257       .  A
C53        C2332   1.487       .  S
O54         Cr63   1.961       .  S
O54          C62   1.256       .  A
O55         Cr63   2.017       .  S
O55          C56   1.266       .  A
C56          O57   1.260       .  A
C56        C2352   1.478       .  S
O57         Cr64   1.977       .  S
O58         Cr64   2.018       .  S
O58          C59   1.268       .  A
C59          O60   1.261       .  A
C59        C2224   1.484       .  S
O60         Cr65   1.981   1_556  S
O61         Cr65   2.025   1_556  S
O61          C62   1.269       .  A
C62        C2188   1.473       .  S
Cr63         O66   1.770       .  S
Cr64         O66   1.776       .  S
Cr65         O66   1.771   1_554  S
O67         Cr85   1.995   1_556  S
O67          C75   1.264       .  A
O68         Cr85   2.009       .  S
O68          C69   1.268       .  A
C69          O70   1.261       .  A
C69        C2170   1.484       .  S
O70         Cr86   1.986       .  S
O71         Cr86   2.010       .  S
O71          C72   1.266   1_554  A
C72          O73   1.261       .  A
C72        C2136   1.472       .  S
O73         Cr87   1.972   1_556  S
O74         Cr87   2.001   1_556  S
O74          C75   1.264       .  A
C75        C2262   1.476       .  S
O76         Cr85   2.012       .  S
O76          C84   1.267       .  A
O77         Cr85   1.981       .  S
O77          C78   1.262       .  A
C78          O79   1.265       .  A
C78        C2242   1.478       .  S
O79         Cr86   2.010       .  S
O80         Cr86   1.991       .  S
O80          C81   1.261       .  A
C81          O82   1.264       .  A
C81        C2154   1.482       .  S
O82         Cr87   2.000       .  S
O83         Cr87   1.976       .  S
O83          C84   1.259       .  A
C84        C2116   1.475       .  S
Cr85         O88   1.770       .  S
Cr86         O88   1.775       .  S
Cr87         O88   1.765       .  S
O89        Cr107   1.998       .  S
O89          C97   1.266       .  A
O90        Cr107   1.981       .  S
O90          C91   1.257       .  A
C91          O92   1.262       .  A
C91        C2098   1.471       .  S
O92        Cr108   2.002       .  S
O93        Cr108   1.995       .  S
O93          C94   1.262       .  A
C94          O95   1.261       .  A
C94        C2134   1.471       .  S
O95        Cr109   1.980       .  S
O96        Cr109   2.007       .  S
O96          C97   1.267       .  A
C97        C2080   1.482       .  S
O98        Cr107   1.990       .  S
O98         C106   1.258       .  A
O99        Cr107   1.996       .  S
O99         C100   1.268       .  A
C100        O101   1.266       .  A
C100       C2062   1.479       .  S
O101       Cr108   2.003       .  S
O102       Cr108   1.989       .  S
O102        C103   1.263       .  A
C103        O104   1.265       .  A
C103       C2316   1.483       .  S
O104       Cr109   2.001       .  S
O105       Cr109   1.997       .  S
O105        C106   1.261       .  A
C106       C2044   1.473       .  S
Cr107       O110   1.773       .  S
Cr108       O110   1.779       .  S
Cr109       O110   1.774       .  S
O111       Cr129   1.974       .  S
O111        C119   1.258       .  A
O112       Cr129   2.010       .  S
O112        C113   1.268       .  A
C113        O114   1.258       .  A
C113       C2100   1.477       .  S
O114       Cr130   1.974       .  S
O115       Cr130   1.999       .  S
O115        C116   1.262       .  A
C116        O117   1.262       .  A
C116       C1972   1.472       .  S
O117       Cr131   1.986       .  S
O118       Cr131   2.008       .  S
O118        C119   1.267       .  A
C119       C2028   1.476       .  S
O120       Cr129   2.005       .  S
O120        C128   1.265       .  A
O121       Cr129   1.972       .  S
O121        C122   1.259       .  A
C122        O123   1.262       .  A
C122       C2010   1.474       .  S
O123       Cr130   2.005       .  S
O124       Cr130   1.973       .  S
O124        C125   1.259       .  A
C125        O126   1.267       .  A
C125       C1954   1.474       .  S
O126       Cr131   2.011       .  S
O127       Cr131   1.986       .  S
O127        C128   1.262       .  A
C128       C1990   1.479       .  S
Cr129       O132   1.774       .  S
Cr130       O132   1.779       .  S
Cr131       O132   1.778       .  S
O133       Cr151   1.975       .  S
O133        C141   1.254       .  A
O134       Cr151   2.026       .  S
O134        C135   1.272       .  A
C135        O136   1.259       .  A
C135       C2082   1.478       .  S
O136       Cr152   1.966       .  S
O137       Cr152   2.025       .  S
O137        C138   1.269       .  A
C138        O139   1.256       .  A
C138       C1902   1.476       .  S
O139       Cr153   1.970       .  S
O140       Cr153   2.010       .  S
O140        C141   1.262       .  A
C141       C2152   1.477       .  S
O142       Cr151   2.037       .  S
O142        C150   1.273       .  A
O143       Cr151   1.976       .  S
O143        C144   1.258       .  A
C144        O145   1.266       .  A
C144       C1936   1.488       .  S
O145       Cr152   2.020       .  S
O146       Cr152   1.977       .  S
O146        C147   1.260       .  A
C147        O148   1.267       .  A
C147       C1918   1.470       .  S
O148       Cr153   2.008       .  S
O149       Cr153   1.947       .  S
O149        C150   1.255       .  A
C150       C2064   1.474       .  S
Cr151       O154   1.775       .  S
Cr152       O154   1.783       .  S
Cr153       O154   1.774       .  S
O155       Cr173   1.967       .  S
O155        C163   1.255       .  A
O156       Cr173   2.010       .  S
O156        C157   1.268       .  A
C157        O158   1.263       .  A
C157       C2026   1.473       .  S
O158       Cr174   1.973       .  S
O159       Cr174   2.046       .  S
O159        C160   1.274       .  A
C160        O161   1.258       .  A
C160       C1864   1.482       .  S
O161       Cr175   1.968       .  S
O162       Cr175   2.025       .  S
O162        C163   1.267       .  A
C163       C1846   1.478       .  S
O164       Cr173   2.016       .  S
O164        C172   1.268       .  A
O165       Cr173   1.963       .  S
O165        C166   1.254       .  A
C166        O167   1.270       .  A
C166       C1938   1.481       .  S
O167       Cr174   2.041       .  S
O168       Cr174   1.983       .  S
O168        C169   1.260       .  A
C169        O170   1.269       .  A
C169       C1882   1.475       .  S
O170       Cr175   2.017       .  S
O171       Cr175   1.962       .  S
O171        C172   1.257       .  A
C172       C2008   1.470       .  S
Cr173       O176   1.764       .  S
Cr174       O176   1.775       .  S
Cr175       O176   1.767       .  S
O177       Cr195   2.025       .  S
O177        C185   1.271       .  A
O178       Cr195   1.968       .  S
O178        C179   1.262       .  A
C179        O180   1.270       .  A
C179       C1794   1.479       .  S
O180       Cr196   2.019       .  S
O181       Cr196   1.990       .  S
O181        C182   1.260       .  A
C182        O183   1.264       .  A
C182       C1992   1.484       .  S
O183       Cr197   2.008   1_556  S
O184       Cr197   1.970   1_556  S
O184        C185   1.259       .  A
C185       C1776   1.476       .  S
O186       Cr195   1.992   1_554  S
O186        C194   1.263       .  A
O187       Cr195   2.017       .  S
O187        C188   1.266       .  A
C188        O189   1.261       .  A
C188       C1828   1.486   1_556  S
O189       Cr196   1.991       .  S
O190       Cr196   2.032   1_554  S
O190        C191   1.271       .  A
C191        O192   1.256       .  A
C191       C1884   1.471       .  S
O192       Cr197   1.959       .  S
O193       Cr197   2.000       .  S
O193        C194   1.262       .  A
C194       C1810   1.473       .  S
Cr195       O198   1.773       .  S
Cr196       O198   1.771       .  S
Cr197       O198   1.763   1_554  S
O199       Cr217   2.015       .  S
O199        C207   1.268       .  A
O200       Cr217   1.976       .  S
O200        C201   1.261       .  A
C201        O202   1.267       .  A
C201       C1758   1.480       .  S
O202       Cr218   2.016       .  S
O203       Cr218   1.988       .  S
O203        C204   1.263       .  A
C204        O205   1.266       .  A
C204       C1720   1.481       .  S
O205       Cr219   2.002       .  S
O206       Cr219   1.977       .  S
O206        C207   1.259       .  A
C207       C1684   1.480       .  S
O208       Cr217   1.988   1_556  S
O208        C216   1.263       .  A
O209       Cr217   2.022       .  S
O209        C210   1.268       .  A
C210        O211   1.261       .  A
C210       C1830   1.484       .  S
O211       Cr218   1.989       .  S
O212       Cr218   2.010       .  S
O212        C213   1.264       .  A
C213        O214   1.260   1_554  A
C213       C1702   1.475   1_554  S
O214       Cr219   1.981   1_556  S
O215       Cr219   1.993   1_556  S
O215        C216   1.263       .  A
C216       C1738   1.469       .  S
Cr217       O220   1.774       .  S
Cr218       O220   1.772       .  S
Cr219       O220   1.768       .  S
O221       Cr239   1.972       .  S
O221        C229   1.261       .  A
O222       Cr239   2.010       .  S
O222        C223   1.262       .  A
C223        O224   1.259       .  A
C223       C1668   1.481       .  S
O224       Cr240   1.994       .  S
O225       Cr240   2.010       .  S
O225        C226   1.265       .  A
C226        O227   1.258       .  A
C226       C1630   1.477       .  S
O227       Cr241   1.978       .  S
O228       Cr241   2.024       .  S
O228        C229   1.272       .  A
C229       C1792   1.475       .  S
O230       Cr239   2.004       .  S
O230        C238   1.263       .  A
O231       Cr239   1.968       .  S
O231        C232   1.263       .  A
C232        O233   1.270       .  A
C232       C1812   1.478       .  S
O233       Cr240   2.024       .  S
O234       Cr240   1.974       .  S
O234        C235   1.261       .  A
C235        O236   1.272       .  A
C235       C1648   1.484       .  S
O236       Cr241   2.029       .  S
O237       Cr241   1.997       .  S
O237        C238   1.263       .  A
C238       C1866   1.483       .  S
Cr239       O242   1.769       .  S
Cr240       O242   1.771       .  S
Cr241       O242   1.773       .  S
O243       Cr261   1.977       .  S
O243        C251   1.258       .  A
O244       Cr261   2.020       .  S
O244        C245   1.269       .  A
C245        O246   1.261       .  A
C245       C1666   1.480       .  S
O246       Cr262   1.983       .  S
O247       Cr262   2.000       .  S
O247        C248   1.262       .  A
C248        O249   1.261       .  A
C248       C1576   1.472       .  S
O249       Cr263   1.982       .  S
O250       Cr263   2.009       .  S
O250        C251   1.267       .  A
C251       C1756   1.480       .  S
O252       Cr261   2.027       .  S
O252        C260   1.269       .  A
O253       Cr261   1.974       .  S
O253        C254   1.261       .  A
C254        O255   1.264       .  A
C254       C1740   1.475       .  S
O255       Cr262   2.008       .  S
O256       Cr262   1.988       .  S
O256        C257   1.264       .  A
C257        O258   1.268       .  A
C257       C1594   1.482       .  S
O258       Cr263   2.007       .  S
O259       Cr263   1.976       .  S
O259        C260   1.259       .  A
C260       C1612   1.486       .  S
Cr261       O264   1.777       .  S
Cr262       O264   1.773       .  S
Cr263       O264   1.770       .  S
O265       Cr283   1.996       .  S
O265        C273   1.264       .  A
O266       Cr283   1.994       .  S
O266        C267   1.260       .  A
C267        O268   1.259       .  A
C267       C1486   1.466       .  S
O268       Cr284   1.977       .  S
O269       Cr284   1.998       .  S
O269        C270   1.263       .  A
C270        O271   1.264       .  A
C270       C1542   1.480       .  S
O271       Cr285   1.996       .  S
O272       Cr285   2.007       .  S
O272        C273   1.265       .  A
C273       C2226   1.480   1_455  S
O274       Cr283   1.992       .  S
O274        C282   1.260       .  A
O275       Cr283   1.987       .  S
O275        C276   1.262       .  A
C276        O277   1.267       .  A
C276       C1522   1.486       .  S
O277       Cr284   2.016       .  S
O278       Cr284   1.981       .  S
O278        C279   1.261       .  A
C279        O280   1.266       .  A
C279       C1558   1.471       .  S
O280       Cr285   1.997       .  S
O281       Cr285   1.974       .  S
O281        C282   1.260       .  A
C282       C1506   1.467       .  S
Cr283       O286   1.778       .  S
Cr284       O286   1.776       .  S
Cr285       O286   1.772       .  S
O287       Cr305   1.959       .  S
O287        C295   1.254   1_455  A
O288       Cr305   2.013       .  S
O288        C289   1.266       .  A
C289        O290   1.261       .  A
C289       C1450   1.481       .  S
O290       Cr306   1.983       .  S
O291       Cr306   2.014       .  S
O291        C292   1.267       .  A
C292        O293   1.264       .  A
C292       C1614   1.486       .  S
O293       Cr307   1.990       .  S
O294       Cr307   2.026       .  S
O294        C295   1.268   1_455  A
C295       C1434   1.472       .  S
O296       Cr305   2.020       .  S
O296        C304   1.267       .  A
O297       Cr305   1.961       .  S
O297        C298   1.254       .  A
C298        O299   1.271       .  A
C298       C1524   1.481       .  S
O299       Cr306   2.042       .  S
O300       Cr306   1.987       .  S
O300        C301   1.264       .  A
C301        O302   1.267       .  A
C301       C1704   1.472       .  S
O302       Cr307   1.996       .  S
O303       Cr307   1.969       .  S
O303        C304   1.256       .  A
C304       C1470   1.479       .  S
Cr305       O308   1.771       .  S
Cr306       O308   1.780       .  S
Cr307       O308   1.775       .  S
O309       Cr327   1.968       .  S
O309        C317   1.257       .  A
O310       Cr327   1.988       .  S
O310        C311   1.261       .  A
C311        O312   1.260       .  A
C311       C1396   1.482       .  S
O312       Cr328   1.997       .  S
O313       Cr328   2.012       .  S
O313        C314   1.266       .  A
C314        O315   1.261       .  A
C314       C2208   1.471       .  S
O315       Cr329   1.970       .  S
O316       Cr329   2.009       .  S
O316        C317   1.268       .  A
C317       C1488   1.468   1_655  S
O318       Cr327   2.004   1_455  S
O318        C326   1.263       .  A
O319       Cr327   1.948       .  S
O319        C320   1.256       .  A
C320        O321   1.270       .  A
C320       C1504   1.460       .  S
O321       Cr328   2.015       .  S
O322       Cr328   1.984       .  S
O322        C323   1.260       .  A
C323        O324   1.266       .  A
C323       C2424   1.481       .  S
O324       Cr329   2.006       .  S
O325       Cr329   1.985       .  S
O325        C326   1.262   1_655  A
C326       C1414   1.474       .  S
Cr327       O330   1.767       .  S
Cr328       O330   1.773       .  S
Cr329       O330   1.765       .  S
O331       Cr349   2.022       .  S
O331        C339   1.268       .  A
O332       Cr349   1.974       .  S
O332        C333   1.260       .  A
C333        O334   1.263       .  A
C333       C1398   1.478       .  S
O334       Cr350   2.007       .  S
O335       Cr350   1.992       .  S
O335        C336   1.263       .  A
C336        O337   1.265       .  A
C336       C1378   1.476       .  S
O337       Cr351   1.992       .  S
O338       Cr351   1.973       .  S
O338        C339   1.260       .  A
C339       C1452   1.483   1_655  S
O340       Cr349   1.975       .  S
O340        C348   1.256       .  A
O341       Cr349   2.014       .  S
O341        C342   1.268       .  A
C342        O343   1.260       .  A
C342       C1468   1.481       .  S
O343       Cr350   1.977       .  S
O344       Cr350   1.998       .  S
O344        C345   1.264       .  A
C345        O346   1.263       .  A
C345       C1360   1.471       .  S
O346       Cr351   1.986       .  S
O347       Cr351   2.011       .  S
O347        C348   1.264       .  A
C348       C1722   1.475   1_655  S
Cr349       O352   1.772       .  S
Cr350       O352   1.777       .  S
Cr351       O352   1.772       .  S
O353       Cr371   2.020       .  S
O353        C361   1.268       .  A
O354       Cr371   1.971       .  S
O354        C355   1.259       .  A
C355        O356   1.264       .  A
C355       C1306   1.476       .  S
O356       Cr372   2.011       .  S
O357       Cr372   1.978       .  S
O357        C358   1.260       .  A
C358        O359   1.268       .  A
C358       C2118   1.477       .  S
O359       Cr373   2.011       .  S
O360       Cr373   1.977       .  S
O360        C361   1.259       .  A
C361       C1290   1.483       .  S
O362       Cr371   1.970       .  S
O362        C370   1.258       .  A
O363       Cr371   2.017       .  S
O363        C364   1.271       .  A
C364        O365   1.261       .  A
C364       C1344   1.483       .  S
O365       Cr372   1.979       .  S
O366       Cr372   2.012       .  S
O366        C367   1.264       .  A
C367        O368   1.260       .  A
C367       C2280   1.476       .  S
O368       Cr373   1.980       .  S
O369       Cr373   2.009       .  S
O369        C370   1.267       .  A
C370       C1326   1.473       .  S
Cr371       O374   1.773       .  S
Cr372       O374   1.777       .  S
Cr373       O374   1.769       .  S
O375       Cr393   2.013       .  S
O375        C383   1.265       .  A
O376       Cr393   1.976       .  S
O376        C377   1.261       .  A
C377        O378   1.263       .  A
C377       C1272   1.471       .  S
O378       Cr394   2.004       .  S
O379       Cr394   1.985       .  S
O379        C380   1.262       .  A
C380        O381   1.268       .  A
C380       C1216   1.480       .  S
O381       Cr395   2.010       .  S
O382       Cr395   1.984       .  S
O382        C383   1.258       .  A
C383       C1650   1.485       .  S
O384       Cr393   1.970       .  S
O384        C392   1.259       .  A
O385       Cr393   2.005       .  S
O385        C386   1.266       .  A
C386        O387   1.265       .  A
C386       C1342   1.478       .  S
O387       Cr394   1.996       .  S
O388       Cr394   2.006       .  S
O388        C389   1.263       .  A
C389        O390   1.260       .  A
C389       C1234   1.478       .  S
O390       Cr395   1.984       .  S
O391       Cr395   2.012       .  S
O391        C392   1.269       .  A
C392       C1252   1.475       .  S
Cr393       O396   1.772       .  S
Cr394       O396   1.776       .  S
Cr395       O396   1.772       .  S
O397       Cr415   2.012       .  S
O397        C405   1.269       .  A
O398       Cr415   1.984       .  S
O398        C399   1.261       .  A
C399        O400   1.265       .  A
C399       C1200   1.485       .  S
O400       Cr416   2.012       .  S
O401       Cr416   1.989       .  S
O401        C402   1.259       .  A
C402        O403   1.263       .  A
C402       C1180   1.470       .  S
O403       Cr417   1.999       .  S
O404       Cr417   1.974       .  S
O404        C405   1.260       .  A
C405       C1308   1.474       .  S
O406       Cr415   1.983       .  S
O406        C414   1.260       .  A
O407       Cr415   2.009       .  S
O407        C408   1.267       .  A
C408        O409   1.261       .  A
C408       C1324   1.475       .  S
O409       Cr416   1.973       .  S
O410       Cr416   2.021       .  S
O410        C411   1.270       .  A
C411        O412   1.260       .  A
C411       C1164   1.478       .  S
O412       Cr417   1.975       .  S
O413       Cr417   2.000       .  S
O413        C414   1.261       .  A
C414       C2298   1.475       .  S
Cr415       O418   1.771       .  S
Cr416       O418   1.771       .  S
Cr417       O418   1.769       .  S
O419       Cr437   2.019       .  S
O419        C427   1.269       .  A
O420       Cr437   1.969       .  S
O420        C421   1.256       .  A
C421        O422   1.269       .  A
C421       C1198   1.482       .  S
O422       Cr438   2.029       .  S
O423       Cr438   1.991       .  S
O423        C424   1.264       .  A
C424        O425   1.266       .  A
C424       C1632   1.474       .  S
O425       Cr439   1.994       .  S
O426       Cr439   1.951       .  S
O426        C427   1.255       .  A
C427       C1270   1.466       .  S
O428       Cr437   1.974       .  S
O428        C436   1.255       .  A
O429       Cr437   2.005       .  S
O429        C430   1.265       .  A
C430        O431   1.261       .  A
C430       C1254   1.473       .  S
O431       Cr438   1.975       .  S
O432       Cr438   2.017       .  S
O432        C433   1.267       .  A
C433        O434   1.261       .  A
C433       C1774   1.478       .  S
O434       Cr439   1.973       .  S
O435       Cr439   2.010       .  S
O435        C436   1.263       .  A
C436       C1144   1.474       .  S
Cr437       O440   1.774       .  S
Cr438       O440   1.779       .  S
Cr439       O440   1.773       .  S
O441       Cr459   1.980       .  S
O441        C449   1.259       .  A
O442       Cr459   2.024       .  S
O442        C443   1.270       .  A
C443        O444   1.263       .  A
C443       C1054   1.484       .  S
O444       Cr460   1.979       .  S
O445       Cr460   2.010       .  S
O445        C446   1.267       .  A
C446        O447   1.263       .  A
C446       C1126   1.479       .  S
O447       Cr461   1.988       .  S
O448       Cr461   1.999       .  S
O448        C449   1.261       .  A
C449       C1362   1.475       .  S
O450       Cr459   2.022   1_556  S
O450        C458   1.270       .  A
O451       Cr459   1.985       .  S
O451        C452   1.259       .  A
C452        O453   1.263       .  A
C452       C1092   1.480       .  S
O453       Cr460   2.009       .  S
O454       Cr460   1.999       .  S
O454        C455   1.263       .  A
C455        O456   1.264       .  A
C455       C1108   1.476   1_554  S
O456       Cr461   1.997       .  S
O457       Cr461   1.971   1_556  S
O457        C458   1.260       .  A
C458       C1072   1.480       .  S
Cr459       O462   1.773       .  S
Cr460       O462   1.769       .  S
Cr461       O462   1.774       .  S
O463       Cr481   1.985       .  S
O463        C471   1.263       .  A
O464       Cr481   2.002       .  S
O464        C465   1.260       .  A
C465        O466   1.257       .  A
C465       C1036   1.473       .  S
O466       Cr482   1.977       .  S
O467       Cr482   2.007       .  S
O467        C468   1.266       .  A
C468        O469   1.261       .  A
C468       C1146   1.474       .  S
O469       Cr483   1.975       .  S
O470       Cr483   1.999       .  S
O470        C471   1.263       .  A
C471       C1956   1.472       .  S
O472       Cr481   2.001   1_554  S
O472        C480   1.262       .  A
O473       Cr481   1.977       .  S
O473        C474   1.263       .  A
C474        O475   1.271       .  A
C474       C1090   1.481       .  S
O475       Cr482   2.023       .  S
O476       Cr482   1.990       .  S
O476        C477   1.262   1_556  A
C477        O478   1.262       .  A
C477       C1236   1.477       .  S
O478       Cr483   1.987   1_554  S
O479       Cr483   1.980   1_554  S
O479        C480   1.260       .  A
C480       C1018   1.470       .  S
Cr481       O484   1.778       .  S
Cr482       O484   1.776       .  S
Cr483       O484   1.773       .  S
O485       Cr503   2.037       .  S
O485        C493   1.274       .  A
O486       Cr503   1.982       .  S
O486        C487   1.259       .  A
C487        O488   1.264       .  A
C487        C982   1.483       .  S
O488       Cr504   2.014       .  S
O489       Cr504   1.988       .  S
O489        C490   1.262       .  A
C490        O491   1.268       .  A
C490       C1380   1.479       .  S
O491       Cr505   2.006       .  S
O492       Cr505   1.960       .  S
O492        C493   1.258       .  A
C493       C1056   1.480       .  S
O494       Cr503   1.971       .  S
O494        C502   1.254       .  A
O495       Cr503   2.031       .  S
O495        C496   1.274       .  A
C496        O497   1.258       .  A
C496       C1074   1.477       .  S
O497       Cr504   1.959       .  S
O498       Cr504   2.023       .  S
O498        C499   1.269       .  A
C499        O500   1.256       .  A
C499       C1432   1.476       .  S
O500       Cr505   1.970       .  S
O501       Cr505   2.003       .  S
O501        C502   1.261       .  A
C502       C1002   1.473       .  S
Cr503       O506   1.775       .  S
Cr504       O506   1.777       .  S
Cr505       O506   1.772       .  S
O507       Cr525   2.011       .  S
O507        C515   1.266       .  A
O508       Cr525   1.982       .  S
O508        C509   1.260       .  A
C509        O510   1.267       .  A
C509        C984   1.483       .  S
O510       Cr526   2.023       .  S
O511       Cr526   1.979       .  S
O511        C512   1.264       .  A
C512        O513   1.270       .  A
C512       C1974   1.471       .  S
O513       Cr527   2.002       .  S
O514       Cr527   1.962       .  S
O514        C515   1.256       .  A
C515       C1038   1.469       .  S
O516       Cr525   1.975       .  S
O516        C524   1.258       .  A
O517       Cr525   2.009       .  S
O517        C518   1.266       .  A
C518        O519   1.261       .  A
C518       C1020   1.472       .  S
O519       Cr526   1.970       .  S
O520       Cr526   2.017       .  S
O520        C521   1.265       .  A
C521        O522   1.256       .  A
C521       C1848   1.480       .  S
O522       Cr527   1.977       .  S
O523       Cr527   2.011       .  S
O523        C524   1.265       .  A
C524       C1218   1.478       .  S
Cr525       O528   1.774       .  S
Cr526       O528   1.778       .  S
Cr527       O528   1.769       .  S
O529       Cr547   1.971       .  S
O529        C537   1.257       .  A
O530       Cr547   2.031       .  S
O530        C531   1.272       .  A
C531        O532   1.261       .  A
C531        C928   1.488       .  S
O532       Cr548   1.973       .  S
O533       Cr548   2.017       .  S
O533        C534   1.268       .  A
C534        O535   1.257       .  A
C534       C2046   1.477       .  S
O535       Cr549   1.973       .  S
O536       Cr549   2.009       .  S
O536        C537   1.265       .  A
C537       C1162   1.476       .  S
O538       Cr547   2.031       .  S
O538        C546   1.270       .  A
O539       Cr547   1.977       .  S
O539        C540   1.258       .  A
C540        O541   1.267       .  A
C540        C966   1.484       .  S
O541       Cr548   2.026       .  S
O542       Cr548   1.987       .  S
O542        C543   1.263       .  A
C543        O544   1.266       .  A
C543       C1920   1.472       .  S
O544       Cr549   1.997       .  S
O545       Cr549   1.961       .  S
O545        C546   1.255       .  A
C546        C948   1.478       .  S
Cr547       O550   1.773       .  S
Cr548       O550   1.777       .  S
Cr549       O550   1.770       .  S
O551       Cr569   1.983       .  S
O551        C559   1.259       .  A
O552       Cr569   2.028       .  S
O552        C553   1.270       .  A
C553        O554   1.254       .  A
C553        C912   1.470       .  S
O554       Cr570   1.953       .  S
O555       Cr570   2.017       .  S
O555        C556   1.269       .  A
C556        O557   1.260       .  A
C556       C1416   1.477       .  S
O557       Cr571   1.975       .  S
O558       Cr571   2.018       .  S
O558        C559   1.265       .  A
C559        C874   1.481       .  S
O560       Cr569   2.034       .  S
O560        C568   1.271       .  A
O561       Cr569   1.980       .  S
O561        C562   1.260       .  A
C562        O563   1.268       .  A
C562        C964   1.485       .  S
O563       Cr570   2.023       .  S
O564       Cr570   1.977       .  S
O564        C565   1.259       .  A
C565        O566   1.267       .  A
C565       C1560   1.472       .  S
O566       Cr571   2.006       .  S
O567       Cr571   1.955       .  S
O567        C568   1.256       .  A
C568        C894   1.471       .  S
Cr569       O572   1.775       .  S
Cr570       O572   1.773       .  S
Cr571       O572   1.766       .  S
O573       Cr591   2.028   1_556  S
O573        C581   1.271       .  A
O574       Cr591   1.974       .  S
O574        C575   1.256       .  A
C575        O576   1.261       .  A
C575        C856   1.481       .  S
O576       Cr592   2.012       .  S
O577       Cr592   1.975       .  S
O577        C578   1.260   1_554  A
C578        O579   1.271   1_556  A
C578       C1182   1.471       .  S
O579       Cr593   2.019       .  S
O580       Cr593   1.967   1_556  S
O580        C581   1.258       .  A
C581        C930   1.481       .  S
O582       Cr591   1.964       .  S
O582        C590   1.254       .  A
O583       Cr591   2.029       .  S
O583        C584   1.274       .  A
C584        O585   1.261       .  A
C584        C946   1.478       .  S
O585       Cr592   1.966       .  S
O586       Cr592   2.013       .  S
O586        C587   1.265       .  A
C587        O588   1.261       .  A
C587       C1288   1.483       .  S
O588       Cr593   1.988       .  S
O589       Cr593   2.020       .  S
O589        C590   1.266       .  A
C590       C1900   1.474       .  S
Cr591       O594   1.770       .  S
Cr592       O594   1.774       .  S
Cr593       O594   1.778       .  S
O595       Cr613   1.972   1_554  S
O595        C603   1.258       .  A
O596       Cr613   2.013       .  S
O596        C597   1.269       .  A
C597        O598   1.260   1_556  A
C597        C858   1.482   1_556  S
O598       Cr614   1.981   1_554  S
O599       Cr614   2.031   1_554  S
O599        C600   1.269       .  A
C600        O601   1.254       .  A
C600        C822   1.472       .  S
O601       Cr615   1.961       .  S
O602       Cr615   2.009       .  S
O602        C603   1.268       .  A
C603        C910   1.475       .  S
O604       Cr613   2.031       .  S
O604        C612   1.270       .  A
O605       Cr613   1.968       .  S
O605        C606   1.262       .  A
C606        O607   1.269       .  A
C606        C892   1.478       .  S
O607       Cr614   2.018       .  S
O608       Cr614   1.965       .  S
O608        C609   1.256       .  A
C609        O610   1.267       .  A
C609        C840   1.469       .  S
O610       Cr615   2.012   1_556  S
O611       Cr615   1.971   1_556  S
O611        C612   1.256       .  A
C612       C1540   1.482       .  S
Cr613       O616   1.770       .  S
Cr614       O616   1.771       .  S
Cr615       O616   1.764   1_554  S
O617       Cr635   2.010   1_455  S
O617        C625   1.267       .  A
O618       Cr635   1.985       .  S
O618        C619   1.266       .  A
C619        O620   1.270       .  A
C619        C768   1.485       .  S
O620       Cr636   2.018       .  S
O621       Cr636   1.982       .  S
O621        C622   1.258       .  A
C622        O623   1.264       .  A
C622       C2190   1.478       .  S
O623       Cr637   2.001       .  S
O624       Cr637   1.970       .  S
O624        C625   1.257   1_655  A
C625        C838   1.471       .  S
O626       Cr635   1.998       .  S
O626        C634   1.263       .  A
O627       Cr635   1.991       .  S
O627        C628   1.262       .  A
C628        O629   1.264       .  A
C628        C802   1.474       .  S
O629       Cr636   1.995       .  S
O630       Cr636   2.038       .  S
O630        C631   1.272       .  A
C631        O632   1.255       .  A
C631       C2388   1.473       .  S
O632       Cr637   1.957       .  S
O633       Cr637   2.004       .  S
O633        C634   1.264       .  A
C634        C786   1.480   1_655  S
Cr635       O638   1.769       .  S
Cr636       O638   1.775       .  S
Cr637       O638   1.766       .  S
O639       Cr657   2.025       .  S
O639        C647   1.269       .  A
O640       Cr657   1.953       .  S
O640        C641   1.259       .  A
C641        O642   1.267       .  A
C641        C748   1.467       .  S
O642       Cr658   2.014       .  S
O643       Cr658   1.976       .  S
O643        C644   1.257       .  A
C644        O645   1.265       .  A
C644       C1000   1.473       .  S
O645       Cr659   2.008       .  S
O646       Cr659   1.974       .  S
O646        C647   1.258       .  A
C647       C1596   1.478   1_655  S
O648       Cr657   1.967       .  S
O648        C656   1.256       .  A
O649       Cr657   2.006       .  S
O649        C650   1.267       .  A
C650        O651   1.261       .  A
C650        C804   1.483       .  S
O651       Cr658   1.986       .  S
O652       Cr658   2.027       .  S
O652        C653   1.270       .  A
C653        O654   1.258       .  A
C653       C1110   1.474       .  S
O654       Cr659   1.965       .  S
O655       Cr659   2.003       .  S
O655        C656   1.267       .  A
C656        C730   1.468       .  S
Cr657       O660   1.770       .  S
Cr658       O660   1.771       .  S
Cr659       O660   1.763       .  S
O661       Cr679   2.043       .  S
O661        C669   1.273       .  A
O662       Cr679   1.976       .  S
O662        C663   1.257       .  A
C663        O664   1.264       .  A
C663        C712   1.485       .  S
O664       Cr680   2.016       .  S
O665       Cr680   1.985       .  S
O665        C666   1.259       .  A
C666        O667   1.267       .  A
C666        C820   1.474       .  S
O667       Cr681   2.010       .  S
O668       Cr681   1.953       .  S
O668        C669   1.256       .  A
C669        C766   1.479       .  S
O670       Cr679   1.967       .  S
O670        C678   1.254   1_455  A
O671       Cr679   2.034       .  S
O671        C672   1.275       .  A
C672        O673   1.260       .  A
C672        C784   1.479       .  S
O673       Cr680   1.963       .  S
O674       Cr680   2.031       .  S
O674        C675   1.271       .  A
C675        O676   1.260       .  A
C675        C876   1.481       .  S
O676       Cr681   1.972       .  S
O677       Cr681   2.016       .  S
O677        C678   1.265   1_455  A
C678       C2406   1.477       .  S
Cr679       O682   1.775       .  S
Cr680       O682   1.776       .  S
Cr681       O682   1.772       .  S
O683       Cr701   1.968       .  S
O683        C691   1.256       .  A
O684       Cr701   2.007       .  S
O684        C685   1.264       .  A
C685        O686   1.262       .  A
C685        C714   1.481       .  S
O686       Cr702   1.994       .  S
O687       Cr702   2.008       .  S
O687        C688   1.266       .  A
C688        O689   1.263       .  A
C688       C1578   1.473       .  S
O689       Cr703   1.976       .  S
O690       Cr703   2.009       .  S
O690        C691   1.266       .  A
C691        C750   1.465       .  S
O692       Cr701   2.016   1_655  S
O692        C700   1.268       .  A
O693       Cr701   1.953       .  S
O693        C694   1.255       .  A
C694        O695   1.269       .  A
C694        C732   1.462       .  S
O695       Cr702   2.014       .  S
O696       Cr702   1.996       .  S
O696        C697   1.264       .  A
C697        O698   1.263       .  A
C697       C1686   1.478       .  S
O698       Cr703   2.001       .  S
O699       Cr703   1.982       .  S
O699        C700   1.260   1_455  A
C700       C1128   1.483       .  S
Cr701       O704   1.768       .  S
Cr702       O704   1.771       .  S
Cr703       O704   1.766       .  S
C705        C713   1.493   1_545  S
C705        C706   1.405       .  A
C705        C710   1.407       .  A
C706        C707   1.403       .  A
C706        H715   1.084       .  S
C707        C708   1.410       .  A
C707        H716   1.080       .  S
C708        C711   1.495       .  S
C708        C709   1.405       .  A
C709        C710   1.399       .  A
C709        H717   1.084       .  S
C710        H718   1.082       .  S
C711        H719   1.088       .  S
C711        C712   1.350       .  D
C712        H720   1.084       .  S
C713        H721   1.087       .  S
C713        C714   1.348       .  D
C714        H722   1.086       .  S
C723        C731   1.475       .  S
C723        C724   1.401   1_554  A
C723        C728   1.406       .  A
C724        C725   1.397       .  A
C724        H733   1.083       .  S
C725        C726   1.408       .  A
C725        H734   1.081       .  S
C726        C729   1.475   1_455  S
C726        C727   1.400   1_455  A
C727        C728   1.390   1_656  A
C727        H735   1.084       .  S
C728        H736   1.083       .  S
C729        H737   1.087       .  S
C729        C730   1.341       .  D
C730        H738   1.085       .  S
C731        H739   1.087       .  S
C731        C732   1.339       .  D
C732        H740   1.086   1_455  S
C741        C749   1.471       .  S
C741        C742   1.400       .  A
C741        C746   1.405   1_655  A
C742        C743   1.395       .  A
C742        H751   1.084       .  S
C743        C744   1.406       .  A
C743        H752   1.082       .  S
C744        C747   1.472       .  S
C744        C745   1.401       .  A
C745        C746   1.394   1_655  A
C745        H753   1.084   1_655  S
C746        H754   1.083       .  S
C747        H755   1.088       .  S
C747        C748   1.342       .  D
C748        H756   1.086       .  S
C749        H757   1.087       .  S
C749        C750   1.339   1_655  D
C750        H758   1.087       .  S
C759        C767   1.494   1_554  S
C759        C760   1.402   1_655  A
C759        C764   1.412       .  A
C760        C761   1.396       .  A
C760        H769   1.084       .  S
C761        C762   1.408   1_455  A
C761        H770   1.083       .  S
C762        C765   1.495       .  S
C762        C763   1.405       .  A
C763        C764   1.407       .  A
C763        H771   1.083       .  S
C764        H772   1.081       .  S
C765        H773   1.086       .  S
C765        C766   1.345   1_655  D
C766        H774   1.087       .  S
C767        H775   1.087   1_655  S
C767        C768   1.347       .  D
C768        H776   1.085       .  S
C777        C785   1.489       .  S
C777        C778   1.404       .  A
C777        C782   1.407   1_455  A
C778        C779   1.404       .  A
C778        H787   1.083       .  S
C779        C780   1.409       .  A
C779        H788   1.083       .  S
C780        C783   1.490       .  S
C780        C781   1.403   1_455  A
C781        C782   1.400       .  A
C781        H789   1.083       .  S
C782        H790   1.083       .  S
C783        H791   1.087       .  S
C783        C784   1.344       .  D
C784        H792   1.087       .  S
C785        H793   1.086       .  S
C785        C786   1.345       .  D
C786        H794   1.087       .  S
C795        C803   1.491   1_545  S
C795        C796   1.404       .  A
C795        C800   1.411       .  A
C796        C797   1.394       .  A
C796        H805   1.083       .  S
C797        C798   1.405       .  A
C797        H806   1.083       .  S
C798        C801   1.489       .  S
C798        C799   1.404       .  A
C799        C800   1.405       .  A
C799        H807   1.083       .  S
C800        H808   1.080       .  S
C801        H809   1.086       .  S
C801        C802   1.344       .  D
C802        H810   1.086       .  S
C803        H811   1.087       .  S
C803        C804   1.349       .  D
C804        H812   1.083       .  S
C813        C821   1.492       .  S
C813        C814   1.407       .  A
C813        C818   1.409       .  A
C814        C815   1.403       .  A
C814        H823   1.084       .  S
C815        C816   1.405       .  A
C815        H824   1.083       .  S
C816        C819   1.477       .  S
C816        C817   1.399       .  A
C817        C818   1.395       .  A
C817        H825   1.084       .  S
C818        H826   1.081       .  S
C819        H827   1.088       .  S
C819        C820   1.342       .  D
C820        H828   1.086       .  S
C821        H829   1.087       .  S
C821        C822   1.347       .  D
C822        H830   1.084       .  S
C831        C839   1.482       .  S
C831        C832   1.402       .  A
C831        C836   1.408       .  A
C832        C833   1.397       .  A
C832        H841   1.083       .  S
C833        C834   1.407       .  A
C833        H842   1.082       .  S
C834        C837   1.480       .  S
C834        C835   1.401       .  A
C835        C836   1.395       .  A
C835        H843   1.083       .  S
C836        H844   1.081       .  S
C837        H845   1.087       .  S
C837        C838   1.343       .  D
C838        H846   1.085       .  S
C839        H847   1.087       .  S
C839        C840   1.343       .  D
C840        H848   1.084       .  S
C849        C857   1.492       .  S
C849        C850   1.410   1_556  A
C849        C854   1.403       .  A
C850        C851   1.404       .  A
C850        H859   1.080       .  S
C851        C852   1.410       .  A
C851        H860   1.080       .  S
C852        C855   1.491       .  S
C852        C853   1.403   1_554  A
C853        C854   1.395       .  A
C853        H861   1.083       .  S
C854        H862   1.083       .  S
C855        H863   1.087   1_554  S
C855        C856   1.347       .  D
C856        H864   1.083       .  S
C857        H865   1.087       .  S
C857        C858   1.348   1_556  D
C858        H866   1.083       .  S
C867        C875   1.486       .  S
C867        C868   1.403       .  A
C867        C872   1.406       .  A
C868        C869   1.403       .  A
C868        H877   1.083       .  S
C869        C870   1.407       .  A
C869        H878   1.083       .  S
C870        C873   1.487       .  S
C870        C871   1.404       .  A
C871        C872   1.400       .  A
C871        H879   1.083       .  S
C872        H880   1.083       .  S
C873        H881   1.087       .  S
C873        C874   1.347       .  D
C874        H882   1.086       .  S
C875        H883   1.086       .  S
C875        C876   1.345       .  D
C876        H884   1.087       .  S
C885        C893   1.487       .  S
C885        C886   1.404       .  A
C885        C890   1.407       .  A
C886        C887   1.403       .  A
C886        H895   1.083       .  S
C887        C888   1.409       .  A
C887        H896   1.082       .  S
C888        C891   1.483       .  S
C888        C889   1.401       .  A
C889        C890   1.393       .  A
C889        H897   1.084       .  S
C890        H898   1.082       .  S
C891        H899   1.088       .  S
C891        C892   1.344       .  D
C892        H900   1.086       .  S
C893        H901   1.086       .  S
C893        C894   1.344       .  D
C894        H902   1.087       .  S
C903        C911   1.484       .  S
C903        C904   1.402       .  A
C903        C908   1.406       .  A
C904        C905   1.403       .  A
C904        H913   1.083       .  S
C905        C906   1.411       .  A
C905        H914   1.081       .  S
C906        C909   1.487       .  S
C906        C907   1.402       .  A
C907        C908   1.394       .  A
C907        H915   1.083       .  S
C908        H916   1.083       .  S
C909        H917   1.087       .  S
C909        C910   1.345       .  D
C910        H918   1.084       .  S
C911        H919   1.086       .  S
C911        C912   1.341       .  D
C912        H920   1.087       .  S
C921        C929   1.492       .  S
C921        C922   1.405       .  A
C921        C926   1.406       .  A
C922        C923   1.405       .  A
C922        H931   1.083       .  S
C923        C924   1.409       .  A
C923        H932   1.081       .  S
C924        C927   1.495       .  S
C924        C925   1.406       .  A
C925        C926   1.400       .  A
C925        H933   1.084       .  S
C926        H934   1.083       .  S
C927        H935   1.087       .  S
C927        C928   1.352       .  D
C928        H936   1.084       .  S
C929        H937   1.087       .  S
C929        C930   1.346       .  D
C930        H938   1.087       .  S
C939        C947   1.491       .  S
C939        C940   1.402       .  A
C939        C944   1.409       .  A
C940        C941   1.401       .  A
C940        H949   1.083       .  S
C941        C942   1.409       .  A
C941        H950   1.081       .  S
C942        C945   1.491       .  S
C942        C943   1.403       .  A
C943        C944   1.400       .  A
C943        H951   1.084       .  S
C944        H952   1.082       .  S
C945        H953   1.087       .  S
C945        C946   1.346       .  D
C946        H954   1.085       .  S
C947        H955   1.087       .  S
C947        C948   1.344       .  D
C948        H956   1.086       .  S
C957        C965   1.489       .  S
C957        C958   1.405       .  A
C957        C962   1.406       .  A
C958        C959   1.403       .  A
C958        H967   1.083       .  S
C959        C960   1.408       .  A
C959        H968   1.082       .  S
C960        C963   1.493       .  S
C960        C961   1.406       .  A
C961        C962   1.402       .  A
C961        H969   1.083       .  S
C962        H970   1.083       .  S
C963        H971   1.087       .  S
C963        C964   1.350       .  D
C964        H972   1.085       .  S
C965        H973   1.087       .  S
C965        C966   1.349       .  D
C966        H974   1.086       .  S
C975        C983   1.490       .  S
C975        C976   1.405       .  A
C975        C980   1.407       .  A
C976        C977   1.403       .  A
C976        H985   1.083       .  S
C977        C978   1.408       .  A
C977        H986   1.083       .  S
C978        C981   1.489       .  S
C978        C979   1.403       .  A
C979        C980   1.401       .  A
C979        H987   1.083       .  S
C980        H988   1.082       .  S
C981        H989   1.087       .  S
C981        C982   1.346       .  D
C982        H990   1.086       .  S
C983        H991   1.087       .  S
C983        C984   1.348       .  D
C984        H992   1.086       .  S
C993       C1001   1.483       .  S
C993        C994   1.402       .  A
C993        C998   1.408       .  A
C994        C995   1.399       .  A
C994       H1003   1.084       .  S
C995        C996   1.407       .  A
C995       H1004   1.082       .  S
C996        C999   1.480       .  S
C996        C997   1.401       .  A
C997        C998   1.396       .  A
C997       H1005   1.085       .  S
C998       H1006   1.082       .  S
C999       H1007   1.088       .  S
C999       C1000   1.343       .  D
C1000      H1008   1.087       .  S
C1001      H1009   1.088       .  S
C1001      C1002   1.344       .  D
C1002      H1010   1.087       .  S
C1011      C1019   1.480       .  S
C1011      C1012   1.401       .  A
C1011      C1016   1.408       .  A
C1012      C1013   1.395       .  A
C1012      H1021   1.083       .  S
C1013      C1014   1.407       .  A
C1013      H1022   1.082       .  S
C1014      C1017   1.480       .  S
C1014      C1015   1.401       .  A
C1015      C1016   1.397       .  A
C1015      H1023   1.083       .  S
C1016      H1024   1.082       .  S
C1017      H1025   1.087       .  S
C1017      C1018   1.341       .  D
C1018      H1026   1.086       .  S
C1019      H1027   1.087       .  S
C1019      C1020   1.344       .  D
C1020      H1028   1.085       .  S
C1029      C1037   1.478       .  S
C1029      C1030   1.401       .  A
C1029      C1034   1.405       .  A
C1030      C1031   1.400       .  A
C1030      H1039   1.083       .  S
C1031      C1032   1.408       .  A
C1031      H1040   1.082       .  S
C1032      C1035   1.480       .  S
C1032      C1033   1.401       .  A
C1033      C1034   1.395       .  A
C1033      H1041   1.083       .  S
C1034      H1042   1.083       .  S
C1035      H1043   1.087       .  S
C1035      C1036   1.343       .  D
C1036      H1044   1.086       .  S
C1037      H1045   1.086       .  S
C1037      C1038   1.342       .  D
C1038      H1046   1.087       .  S
C1047      C1055   1.491       .  S
C1047      C1048   1.404       .  A
C1047      C1052   1.407       .  A
C1048      C1049   1.405       .  A
C1048      H1057   1.083       .  S
C1049      C1050   1.409       .  A
C1049      H1058   1.082       .  S
C1050      C1053   1.490       .  S
C1050      C1051   1.404       .  A
C1051      C1052   1.399       .  A
C1051      H1059   1.083       .  S
C1052      H1060   1.083       .  S
C1053      H1061   1.087       .  S
C1053      C1054   1.349       .  D
C1054      H1062   1.086       .  S
C1055      H1063   1.086       .  S
C1055      C1056   1.344       .  D
C1056      H1064   1.087       .  S
C1065      C1073   1.492       .  S
C1065      C1066   1.403       .  A
C1065      C1070   1.409       .  A
C1066      C1067   1.400       .  A
C1066      H1075   1.083       .  S
C1067      C1068   1.410       .  A
C1067      H1076   1.081       .  S
C1068      C1071   1.494       .  S
C1068      C1069   1.404       .  A
C1069      C1070   1.401       .  A
C1069      H1077   1.083       .  S
C1070      H1078   1.082       .  S
C1071      H1079   1.087       .  S
C1071      C1072   1.348       .  D
C1072      H1080   1.084       .  S
C1073      H1081   1.087       .  S
C1073      C1074   1.345       .  D
C1074      H1082   1.086       .  S
C1083      C1091   1.488       .  S
C1083      C1084   1.404   1_554  A
C1083      C1088   1.407       .  A
C1084      C1085   1.402       .  A
C1084      H1093   1.083       .  S
C1085      C1086   1.407   1_556  A
C1085      H1094   1.083       .  S
C1086      C1089   1.487   1_554  S
C1086      C1087   1.403       .  A
C1087      C1088   1.400       .  A
C1087      H1095   1.083       .  S
C1088      H1096   1.083       .  S
C1089      H1097   1.087   1_556  S
C1089      C1090   1.347       .  D
C1090      H1098   1.086       .  S
C1091      H1099   1.087   1_554  S
C1091      C1092   1.346       .  D
C1092      H1100   1.086       .  S
C1101      C1109   1.490       .  S
C1101      C1102   1.405       .  A
C1101      C1106   1.407       .  A
C1102      C1103   1.403       .  A
C1102      H1111   1.084       .  S
C1103      C1104   1.407       .  A
C1103      H1112   1.082       .  S
C1104      C1107   1.480       .  S
C1104      C1105   1.401       .  A
C1105      C1106   1.395       .  A
C1105      H1113   1.084       .  S
C1106      H1114   1.082       .  S
C1107      H1115   1.088   1_556  S
C1107      C1108   1.345       .  D
C1108      H1116   1.086       .  S
C1109      H1117   1.087       .  S
C1109      C1110   1.347       .  D
C1110      H1118   1.086       .  S
C1119      C1127   1.494       .  S
C1119      C1120   1.403       .  A
C1119      C1124   1.410       .  A
C1120      C1121   1.398       .  A
C1120      H1129   1.084       .  S
C1121      C1122   1.410       .  A
C1121      H1130   1.079       .  S
C1122      C1125   1.498       .  S
C1122      C1123   1.406       .  A
C1123      C1124   1.404       .  A
C1123      H1131   1.083       .  S
C1124      H1132   1.080       .  S
C1125      H1133   1.087       .  S
C1125      C1126   1.348       .  D
C1126      H1134   1.083       .  S
C1127      H1135   1.087       .  S
C1127      C1128   1.348       .  D
C1128      H1136   1.083       .  S
C1137      C1145   1.481       .  S
C1137      C1138   1.402       .  A
C1137      C1142   1.406       .  A
C1138      C1139   1.398       .  A
C1138      H1147   1.084       .  S
C1139      C1140   1.406       .  A
C1139      H1148   1.083       .  S
C1140      C1143   1.481       .  S
C1140      C1141   1.402       .  A
C1141      C1142   1.400       .  A
C1141      H1149   1.083       .  S
C1142      H1150   1.083       .  S
C1143      H1151   1.087       .  S
C1143      C1144   1.344       .  D
C1144      H1152   1.087       .  S
C1145      H1153   1.087       .  S
C1145      C1146   1.344       .  D
C1146      H1154   1.087       .  S
C1155      C1163   1.488       .  S
C1155      C1156   1.403       .  A
C1155      C1160   1.408       .  A
C1156      C1157   1.397       .  A
C1156      H1165   1.083       .  S
C1157      C1158   1.407       .  A
C1157      H1166   1.082       .  S
C1158      C1161   1.488       .  S
C1158      C1159   1.404       .  A
C1159      C1160   1.401       .  A
C1159      H1167   1.083       .  S
C1160      H1168   1.082       .  S
C1161      H1169   1.087       .  S
C1161      C1162   1.347       .  D
C1162      H1170   1.085       .  S
C1163      H1171   1.087       .  S
C1163      C1164   1.346       .  D
C1164      H1172   1.085       .  S
C1173      C1181   1.478       .  S
C1173      C1174   1.401       .  A
C1173      C1178   1.406       .  A
C1174      C1175   1.397       .  A
C1174      H1183   1.083       .  S
C1175      C1176   1.406       .  A
C1175      H1184   1.082       .  S
C1176      C1179   1.478       .  S
C1176      C1177   1.403       .  A
C1177      C1178   1.398       .  A
C1177      H1185   1.084       .  S
C1178      H1186   1.083       .  S
C1179      H1187   1.088       .  S
C1179      C1180   1.344       .  D
C1180      H1188   1.086       .  S
C1181      H1189   1.088       .  S
C1181      C1182   1.341       .  D
C1182      H1190   1.086       .  S
C1191      C1199   1.493       .  S
C1191      C1192   1.404       .  A
C1191      C1196   1.410       .  A
C1192      C1193   1.399       .  A
C1192      H1201   1.083       .  S
C1193      C1194   1.406       .  A
C1193      H1202   1.083   1_545  S
C1194      C1197   1.491   1_545  S
C1194      C1195   1.404       .  A
C1195      C1196   1.405       .  A
C1195      H1203   1.083       .  S
C1196      H1204   1.082       .  S
C1197      H1205   1.086       .  S
C1197      C1198   1.346       .  D
C1198      H1206   1.087       .  S
C1199      H1207   1.087       .  S
C1199      C1200   1.348       .  D
C1200      H1208   1.085       .  S
C1209      C1217   1.489       .  S
C1209      C1210   1.405       .  A
C1209      C1214   1.408       .  A
C1210      C1211   1.402       .  A
C1210      H1219   1.084       .  S
C1211      C1212   1.407       .  A
C1211      H1220   1.082       .  S
C1212      C1215   1.485       .  S
C1212      C1213   1.402       .  A
C1213      C1214   1.397       .  A
C1213      H1221   1.084       .  S
C1214      H1222   1.082       .  S
C1215      H1223   1.087       .  S
C1215      C1216   1.347       .  D
C1216      H1224   1.086       .  S
C1217      H1225   1.087       .  S
C1217      C1218   1.347       .  D
C1218      H1226   1.086       .  S
C1227      C1235   1.480       .  S
C1227      C1228   1.401       .  A
C1227      C1232   1.406       .  A
C1228      C1229   1.397       .  A
C1228      H1237   1.083       .  S
C1229      C1230   1.408       .  A
C1229      H1238   1.083       .  S
C1230      C1233   1.486       .  S
C1230      C1231   1.404       .  A
C1231      C1232   1.403       .  A
C1231      H1239   1.083       .  S
C1232      H1240   1.083       .  S
C1233      H1241   1.087       .  S
C1233      C1234   1.344       .  D
C1234      H1242   1.087       .  S
C1235      H1243   1.088       .  S
C1235      C1236   1.345       .  D
C1236      H1244   1.086       .  S
C1245      C1253   1.479   1_554  S
C1245      C1246   1.402       .  A
C1245      C1250   1.405       .  A
C1246      C1247   1.400       .  A
C1246      H1255   1.083       .  S
C1247      C1248   1.408       .  A
C1247      H1256   1.082       .  S
C1248      C1251   1.483       .  S
C1248      C1249   1.402       .  A
C1249      C1250   1.396       .  A
C1249      H1257   1.083       .  S
C1250      H1258   1.083   1_554  S
C1251      H1259   1.087       .  S
C1251      C1252   1.344       .  D
C1252      H1260   1.086       .  S
C1253      H1261   1.086       .  S
C1253      C1254   1.344       .  D
C1254      H1262   1.087       .  S
C1263      C1271   1.482       .  S
C1263      C1264   1.400       .  A
C1263      C1268   1.411       .  A
C1264      C1265   1.392       .  A
C1264      H1273   1.084       .  S
C1265      C1266   1.407       .  A
C1265      H1274   1.083       .  S
C1266      C1269   1.481       .  S
C1266      C1267   1.400       .  A
C1267      C1268   1.400       .  A
C1267      H1275   1.083       .  S
C1268      H1276   1.081       .  S
C1269      H1277   1.087       .  S
C1269      C1270   1.341       .  D
C1270      H1278   1.087       .  S
C1271      H1279   1.087       .  S
C1271      C1272   1.341       .  D
C1272      H1280   1.084       .  S
C1281      C1289   1.494       .  S
C1281      C1282   1.405       .  A
C1281      C1286   1.409       .  A
C1282      C1283   1.402       .  A
C1282      H1291   1.084       .  S
C1283      C1284   1.409       .  A
C1283      H1292   1.081       .  S
C1284      C1287   1.496       .  S
C1284      C1285   1.405       .  A
C1285      C1286   1.401       .  A
C1285      H1293   1.084       .  S
C1286      H1294   1.081       .  S
C1287      H1295   1.087       .  S
C1287      C1288   1.348       .  D
C1288      H1296   1.084       .  S
C1289      H1297   1.087       .  S
C1289      C1290   1.348       .  D
C1290      H1298   1.085       .  S
C1299      C1307   1.484       .  S
C1299      C1300   1.402       .  A
C1299      C1304   1.406       .  A
C1300      C1301   1.398       .  A
C1300      H1309   1.083       .  S
C1301      C1302   1.408   1_556  A
C1301      H1310   1.081       .  S
C1302      C1305   1.486       .  S
C1302      C1303   1.404   1_554  A
C1303      C1304   1.397       .  A
C1303      H1311   1.084   1_556  S
C1304      H1312   1.082       .  S
C1305      H1313   1.088       .  S
C1305      C1306   1.346       .  D
C1306      H1314   1.084       .  S
C1307      H1315   1.087       .  S
C1307      C1308   1.346       .  D
C1308      H1316   1.085       .  S
C1317      C1325   1.480       .  S
C1317      C1318   1.402       .  A
C1317      C1322   1.406       .  A
C1318      C1319   1.398       .  A
C1318      H1327   1.083       .  S
C1319      C1320   1.407       .  A
C1319      H1328   1.083       .  S
C1320      C1323   1.482       .  S
C1320      C1321   1.403       .  A
C1321      C1322   1.399       .  A
C1321      H1329   1.083       .  S
C1322      H1330   1.083       .  S
C1323      H1331   1.087       .  S
C1323      C1324   1.345       .  D
C1324      H1332   1.086       .  S
C1325      H1333   1.087       .  S
C1325      C1326   1.343       .  D
C1326      H1334   1.086       .  S
C1335      C1343   1.491       .  S
C1335      C1336   1.402       .  A
C1335      C1340   1.410       .  A
C1336      C1337   1.395       .  A
C1336      H1345   1.084       .  S
C1337      C1338   1.409   1_545  A
C1337      H1346   1.080   1_545  S
C1338      C1341   1.497       .  S
C1338      C1339   1.406   1_565  A
C1339      C1340   1.406       .  A
C1339      H1347   1.084       .  S
C1340      H1348   1.081       .  S
C1341      H1349   1.087       .  S
C1341      C1342   1.347       .  D
C1342      H1350   1.084       .  S
C1343      H1351   1.087       .  S
C1343      C1344   1.347       .  D
C1344      H1352   1.084       .  S
C1353      C1361   1.486       .  S
C1353      C1354   1.401       .  A
C1353      C1358   1.410       .  A
C1354      C1355   1.395       .  A
C1354      H1363   1.083       .  S
C1355      C1356   1.408       .  A
C1355      H1364   1.082       .  S
C1356      C1359   1.486       .  S
C1356      C1357   1.402       .  A
C1357      C1358   1.400       .  A
C1357      H1365   1.083       .  S
C1358      H1366   1.081       .  S
C1359      H1367   1.087       .  S
C1359      C1360   1.343       .  D
C1360      H1368   1.086       .  S
C1361      H1369   1.087       .  S
C1361      C1362   1.344       .  D
C1362      H1370   1.084       .  S
C1371      C1379   1.484       .  S
C1371      C1372   1.408       .  A
C1371      C1376   1.403       .  A
C1372      C1373   1.405       .  A
C1372      H1381   1.082       .  S
C1373      C1374   1.408       .  A
C1373      H1382   1.082       .  S
C1374      C1377   1.480       .  S
C1374      C1375   1.400       .  A
C1375      C1376   1.392       .  A
C1375      H1383   1.084       .  S
C1376      H1384   1.084       .  S
C1377      H1385   1.089       .  S
C1377      C1378   1.345       .  D
C1378      H1386   1.085       .  S
C1379      H1387   1.088       .  S
C1379      C1380   1.347       .  D
C1380      H1388   1.085       .  S
C1389      C1397   1.488       .  S
C1389      C1390   1.411       .  A
C1389      C1394   1.401       .  A
C1390      C1391   1.403       .  A
C1390      H1399   1.080       .  S
C1391      C1392   1.406       .  A
C1391      H1400   1.082       .  S
C1392      C1395   1.484       .  S
C1392      C1393   1.402       .  A
C1393      C1394   1.393       .  A
C1393      H1401   1.084       .  S
C1394      H1402   1.084       .  S
C1395      H1403   1.087       .  S
C1395      C1396   1.349       .  D
C1396      H1404   1.085       .  S
C1397      H1405   1.088       .  S
C1397      C1398   1.345       .  D
C1398      H1406   1.083       .  S
C1407      C1415   1.488       .  S
C1407      C1408   1.403       .  A
C1407      C1412   1.409       .  A
C1408      C1409   1.398       .  A
C1408      H1417   1.084       .  S
C1409      C1410   1.409       .  A
C1409      H1418   1.081       .  S
C1410      C1413   1.488       .  S
C1410      C1411   1.402       .  A
C1411      C1412   1.398       .  A
C1411      H1419   1.084       .  S
C1412      H1420   1.080       .  S
C1413      H1421   1.087       .  S
C1413      C1414   1.344       .  D
C1414      H1422   1.085       .  S
C1415      H1423   1.087       .  S
C1415      C1416   1.346       .  D
C1416      H1424   1.084       .  S
C1425      C1433   1.488       .  S
C1425      C1426   1.402       .  A
C1425      C1430   1.408       .  A
C1426      C1427   1.402       .  A
C1426      H1435   1.083       .  S
C1427      C1428   1.410       .  A
C1427      H1436   1.081       .  S
C1428      C1431   1.488       .  S
C1428      C1429   1.401       .  A
C1429      C1430   1.395       .  A
C1429      H1437   1.084       .  S
C1430      H1438   1.082       .  S
C1431      H1439   1.087       .  S
C1431      C1432   1.344       .  D
C1432      H1440   1.084       .  S
C1433      H1441   1.087       .  S
C1433      C1434   1.344       .  D
C1434      H1442   1.086       .  S
C1443      C1451   1.492   1_455  S
C1443      C1444   1.405   1_455  A
C1443      C1448   1.408       .  A
C1444      C1445   1.399       .  A
C1444      H1453   1.084       .  S
C1445      C1446   1.407   1_655  A
C1445      H1454   1.082       .  S
C1446      C1449   1.491       .  S
C1446      C1447   1.405       .  A
C1447      C1448   1.403       .  A
C1447      H1455   1.083       .  S
C1448      H1456   1.081       .  S
C1449      H1457   1.087       .  S
C1449      C1450   1.348       .  D
C1450      H1458   1.086       .  S
C1451      H1459   1.088       .  S
C1451      C1452   1.350   1_655  D
C1452      H1460   1.085       .  S
C1461      C1469   1.492       .  S
C1461      C1462   1.404       .  A
C1461      C1466   1.408   1_655  A
C1462      C1463   1.403       .  A
C1462      H1471   1.083       .  S
C1463      C1464   1.410   1_556  A
C1463      H1472   1.081       .  S
C1464      C1467   1.492       .  S
C1464      C1465   1.404   1_654  A
C1465      C1466   1.398       .  A
C1465      H1473   1.084   1_556  S
C1466      H1474   1.082       .  S
C1467      H1475   1.087       .  S
C1467      C1468   1.347       .  D
C1468      H1476   1.085       .  S
C1469      H1477   1.086       .  S
C1469      C1470   1.347   1_655  D
C1470      H1478   1.086       .  S
C1479      C1487   1.482       .  S
C1479      C1480   1.404       .  A
C1479      C1484   1.407       .  A
C1480      C1481   1.396       .  A
C1480      H1489   1.084       .  S
C1481      C1482   1.401       .  A
C1481      H1490   1.083       .  S
C1482      C1485   1.480   1_554  S
C1482      C1483   1.406       .  A
C1483      C1484   1.394       .  A
C1483      H1491   1.082       .  S
C1484      H1492   1.080       .  S
C1485      H1493   1.087       .  S
C1485      C1486   1.342       .  D
C1486      H1494   1.085       .  S
C1487      H1495   1.087       .  S
C1487      C1488   1.345       .  D
C1488      H1496   1.083       .  S
C1497      C1505   1.481       .  S
C1497      C1498   1.399       .  A
C1497      C1502   1.411   1_455  A
C1498      C1499   1.390       .  A
C1498      H1507   1.083       .  S
C1499      C1500   1.407   1_455  A
C1499      H1508   1.082       .  S
C1500      C1503   1.477       .  S
C1500      C1501   1.399       .  A
C1501      C1502   1.397       .  A
C1501      H1509   1.083       .  S
C1502      H1510   1.080       .  S
C1503      H1511   1.087       .  S
C1503      C1504   1.339       .  D
C1504      H1512   1.086   1_655  S
C1505      H1513   1.087       .  S
C1505      C1506   1.340       .  D
C1506      H1514   1.083   1_455  S
C1515      C1523   1.494       .  S
C1515      C1516   1.405       .  A
C1515      C1520   1.407       .  A
C1516      C1517   1.407       .  A
C1516      H1525   1.083       .  S
C1517      C1518   1.411       .  A
C1517      H1526   1.082       .  S
C1518      C1521   1.494       .  S
C1518      C1519   1.403       .  A
C1519      C1520   1.398       .  A
C1519      H1527   1.083       .  S
C1520      H1528   1.083       .  S
C1521      H1529   1.087       .  S
C1521      C1522   1.348       .  D
C1522      H1530   1.085       .  S
C1523      H1531   1.086       .  S
C1523      C1524   1.346       .  D
C1524      H1532   1.087       .  S
C1533      C1541   1.498       .  S
C1533      C1534   1.405       .  A
C1533      C1538   1.411       .  A
C1534      C1535   1.404       .  A
C1534      H1543   1.083       .  S
C1535      C1536   1.410       .  A
C1535      H1544   1.082       .  S
C1536      C1539   1.493       .  S
C1536      C1537   1.402       .  A
C1537      C1538   1.399       .  A
C1537      H1545   1.083       .  S
C1538      H1546   1.080       .  S
C1539      H1547   1.087       .  S
C1539      C1540   1.346       .  D
C1540      H1548   1.085       .  S
C1541      H1549   1.087       .  S
C1541      C1542   1.347       .  D
C1542      H1550   1.083       .  S
C1551      C1559   1.477       .  S
C1551      C1552   1.401       .  A
C1551      C1556   1.406       .  A
C1552      C1553   1.398       .  A
C1552      H1561   1.083       .  S
C1553      C1554   1.406       .  A
C1553      H1562   1.083       .  S
C1554      C1557   1.477       .  S
C1554      C1555   1.402       .  A
C1555      C1556   1.399       .  A
C1555      H1563   1.083       .  S
C1556      H1564   1.083       .  S
C1557      H1565   1.088       .  S
C1557      C1558   1.342       .  D
C1558      H1566   1.086       .  S
C1559      H1567   1.088       .  S
C1559      C1560   1.341       .  D
C1560      H1568   1.086       .  S
C1569      C1577   1.481       .  S
C1569      C1570   1.401       .  A
C1569      C1574   1.409       .  A
C1570      C1571   1.397       .  A
C1570      H1579   1.083       .  S
C1571      C1572   1.409       .  A
C1571      H1580   1.082       .  S
C1572      C1575   1.482       .  S
C1572      C1573   1.401       .  A
C1573      C1574   1.397       .  A
C1573      H1581   1.083       .  S
C1574      H1582   1.082       .  S
C1575      H1583   1.087       .  S
C1575      C1576   1.341       .  D
C1576      H1584   1.086       .  S
C1577      H1585   1.087       .  S
C1577      C1578   1.342       .  D
C1578      H1586   1.086       .  S
C1587      C1595   1.490       .  S
C1587      C1588   1.405       .  A
C1587      C1592   1.407       .  A
C1588      C1589   1.402       .  A
C1588      H1597   1.083       .  S
C1589      C1590   1.408       .  A
C1589      H1598   1.081       .  S
C1590      C1593   1.489       .  S
C1590      C1591   1.404       .  A
C1591      C1592   1.398       .  A
C1591      H1599   1.084       .  S
C1592      H1600   1.082       .  S
C1593      H1601   1.087       .  S
C1593      C1594   1.350       .  D
C1594      H1602   1.085       .  S
C1595      H1603   1.087       .  S
C1595      C1596   1.347       .  D
C1596      H1604   1.085       .  S
C1605      C1613   1.502       .  S
C1605      C1606   1.407       .  A
C1605      C1610   1.411       .  A
C1606      C1607   1.403       .  A
C1606      H1615   1.083       .  S
C1607      C1608   1.408       .  A
C1607      H1616   1.082       .  S
C1608      C1611   1.496       .  S
C1608      C1609   1.404       .  A
C1609      C1610   1.403       .  A
C1609      H1617   1.083       .  S
C1610      H1618   1.080       .  S
C1611      H1619   1.086       .  S
C1611      C1612   1.348       .  D
C1612      H1620   1.085       .  S
C1613      H1621   1.087       .  S
C1613      C1614   1.351       .  D
C1614      H1622   1.083       .  S
C1623      C1631   1.475       .  S
C1623      C1624   1.401       .  A
C1623      C1628   1.405       .  A
C1624      C1625   1.396       .  A
C1624      H1633   1.083       .  S
C1625      C1626   1.402       .  A
C1625      H1634   1.084       .  S
C1626      C1629   1.481       .  S
C1626      C1627   1.407       .  A
C1627      C1628   1.402       .  A
C1627      H1635   1.083       .  S
C1628      H1636   1.083       .  S
C1629      H1637   1.087       .  S
C1629      C1630   1.345       .  D
C1630      H1638   1.087       .  S
C1631      H1639   1.088       .  S
C1631      C1632   1.344       .  D
C1632      H1640   1.086       .  S
C1641      C1649   1.495       .  S
C1641      C1642   1.404       .  A
C1641      C1646   1.409       .  A
C1642      C1643   1.401       .  A
C1642      H1651   1.083       .  S
C1643      C1644   1.409       .  A
C1643      H1652   1.081       .  S
C1644      C1647   1.496       .  S
C1644      C1645   1.405       .  A
C1645      C1646   1.404       .  A
C1645      H1653   1.083       .  S
C1646      H1654   1.081       .  S
C1647      H1655   1.087       .  S
C1647      C1648   1.349       .  D
C1648      H1656   1.085       .  S
C1649      H1657   1.087       .  S
C1649      C1650   1.349       .  D
C1650      H1658   1.085       .  S
C1659      C1667   1.485       .  S
C1659      C1660   1.404       .  A
C1659      C1664   1.406       .  A
C1660      C1661   1.401       .  A
C1660      H1669   1.084       .  S
C1661      C1662   1.406       .  A
C1661      H1670   1.083       .  S
C1662      C1665   1.486       .  S
C1662      C1663   1.404       .  A
C1663      C1664   1.402       .  A
C1663      H1671   1.083       .  S
C1664      H1672   1.083       .  S
C1665      H1673   1.087       .  S
C1665      C1666   1.345       .  D
C1666      H1674   1.087       .  S
C1667      H1675   1.087       .  S
C1667      C1668   1.347       .  D
C1668      H1676   1.086       .  S
C1677      C1685   1.488       .  S
C1677      C1678   1.403       .  A
C1677      C1682   1.408       .  A
C1678      C1679   1.403       .  A
C1678      H1687   1.083       .  S
C1679      C1680   1.407       .  A
C1679      H1688   1.083       .  S
C1680      C1683   1.486       .  S
C1680      C1681   1.402       .  A
C1681      C1682   1.399       .  A
C1681      H1689   1.083       .  S
C1682      H1690   1.083       .  S
C1683      H1691   1.087       .  S
C1683      C1684   1.345       .  D
C1684      H1692   1.086       .  S
C1685      H1693   1.086       .  S
C1685      C1686   1.344       .  D
C1686      H1694   1.087       .  S
C1695      C1703   1.479       .  S
C1695      C1696   1.401       .  A
C1695      C1700   1.406       .  A
C1696      C1697   1.396       .  A
C1696      H1705   1.084       .  S
C1697      C1698   1.406       .  A
C1697      H1706   1.083       .  S
C1698      C1701   1.482       .  S
C1698      C1699   1.403       .  A
C1699      C1700   1.401       .  A
C1699      H1707   1.083       .  S
C1700      H1708   1.083       .  S
C1701      H1709   1.087       .  S
C1701      C1702   1.343       .  D
C1702      H1710   1.087   1_556  S
C1703      H1711   1.088       .  S
C1703      C1704   1.344       .  D
C1704      H1712   1.086       .  S
C1713      C1721   1.484       .  S
C1713      C1714   1.403       .  A
C1713      C1718   1.404       .  A
C1714      C1715   1.401       .  A
C1714      H1723   1.083       .  S
C1715      C1716   1.409       .  A
C1715      H1724   1.080       .  S
C1716      C1719   1.489       .  S
C1716      C1717   1.405       .  A
C1717      C1718   1.397       .  A
C1717      H1725   1.084       .  S
C1718      H1726   1.083       .  S
C1719      H1727   1.088       .  S
C1719      C1720   1.350       .  D
C1720      H1728   1.084       .  S
C1721      H1729   1.087       .  S
C1721      C1722   1.345       .  D
C1722      H1730   1.086       .  S
C1731      C1739   1.486       .  S
C1731      C1732   1.402       .  A
C1731      C1736   1.411       .  A
C1732      C1733   1.393       .  A
C1732      H1741   1.084       .  S
C1733      C1734   1.405       .  A
C1733      H1742   1.083       .  S
C1734      C1737   1.481       .  S
C1734      C1735   1.401       .  A
C1735      C1736   1.402       .  A
C1735      H1743   1.083       .  S
C1736      H1744   1.081       .  S
C1737      H1745   1.087       .  S
C1737      C1738   1.342       .  D
C1738      H1746   1.088       .  S
C1739      H1747   1.087       .  S
C1739      C1740   1.344       .  D
C1740      H1748   1.084       .  S
C1749      C1757   1.488       .  S
C1749      C1750   1.407       .  A
C1749      C1754   1.402       .  A
C1750      C1751   1.403       .  A
C1750      H1759   1.082       .  S
C1751      C1752   1.411       .  A
C1751      H1760   1.080       .  S
C1752      C1755   1.492       .  S
C1752      C1753   1.404       .  A
C1753      C1754   1.396       .  A
C1753      H1761   1.084       .  S
C1754      H1762   1.083       .  S
C1755      H1763   1.088       .  S
C1755      C1756   1.347       .  D
C1756      H1764   1.084       .  S
C1757      H1765   1.087       .  S
C1757      C1758   1.347       .  D
C1758      H1766   1.085       .  S
C1767      C1775   1.490       .  S
C1767      C1768   1.404       .  A
C1767      C1772   1.407       .  A
C1768      C1769   1.400       .  A
C1768      H1777   1.083       .  S
C1769      C1770   1.409       .  A
C1769      H1778   1.080       .  S
C1770      C1773   1.490       .  S
C1770      C1771   1.404       .  A
C1771      C1772   1.398       .  A
C1771      H1779   1.083       .  S
C1772      H1780   1.081       .  S
C1773      H1781   1.087       .  S
C1773      C1774   1.347       .  D
C1774      H1782   1.083       .  S
C1775      H1783   1.087       .  S
C1775      C1776   1.346       .  D
C1776      H1784   1.084       .  S
C1785      C1793   1.485       .  S
C1785      C1786   1.403       .  A
C1785      C1790   1.408       .  A
C1786      C1787   1.398       .  A
C1786      H1795   1.084       .  S
C1787      C1788   1.406       .  A
C1787      H1796   1.083       .  S
C1788      C1791   1.483       .  S
C1788      C1789   1.402       .  A
C1789      C1790   1.401       .  A
C1789      H1797   1.083       .  S
C1790      H1798   1.082       .  S
C1791      H1799   1.087       .  S
C1791      C1792   1.343       .  D
C1792      H1800   1.087       .  S
C1793      H1801   1.087       .  S
C1793      C1794   1.347       .  D
C1794      H1802   1.086       .  S
C1803      C1811   1.484       .  S
C1803      C1804   1.401       .  A
C1803      C1808   1.409       .  A
C1804      C1805   1.394       .  A
C1804      H1813   1.084       .  S
C1805      C1806   1.406       .  A
C1805      H1814   1.083       .  S
C1806      C1809   1.486       .  S
C1806      C1807   1.403       .  A
C1807      C1808   1.403       .  A
C1807      H1815   1.083       .  S
C1808      H1816   1.082       .  S
C1809      H1817   1.086       .  S
C1809      C1810   1.343       .  D
C1810      H1818   1.087       .  S
C1811      H1819   1.087       .  S
C1811      C1812   1.346       .  D
C1812      H1820   1.085       .  S
C1821      C1829   1.489       .  S
C1821      C1822   1.405       .  A
C1821      C1826   1.406   1_554  A
C1822      C1823   1.404       .  A
C1822      H1831   1.083       .  S
C1823      C1824   1.407       .  A
C1823      H1832   1.083       .  S
C1824      C1827   1.491   1_554  S
C1824      C1825   1.405   1_554  A
C1825      C1826   1.403       .  A
C1825      H1833   1.083       .  S
C1826      H1834   1.083       .  S
C1827      H1835   1.087       .  S
C1827      C1828   1.349   1_556  D
C1828      H1836   1.086       .  S
C1829      H1837   1.087       .  S
C1829      C1830   1.347       .  D
C1830      H1838   1.087       .  S
C1839      C1847   1.492       .  S
C1839      C1840   1.404       .  A
C1839      C1844   1.410       .  A
C1840      C1841   1.398       .  A
C1840      H1849   1.083       .  S
C1841      C1842   1.408       .  A
C1841      H1850   1.082       .  S
C1842      C1845   1.492       .  S
C1842      C1843   1.404       .  A
C1843      C1844   1.402       .  A
C1843      H1851   1.083       .  S
C1844      H1852   1.081       .  S
C1845      H1853   1.086       .  S
C1845      C1846   1.346       .  D
C1846      H1854   1.085       .  S
C1847      H1855   1.087       .  S
C1847      C1848   1.348       .  D
C1848      H1856   1.083       .  S
C1857      C1865   1.497       .  S
C1857      C1858   1.405       .  A
C1857      C1862   1.409       .  A
C1858      C1859   1.404       .  A
C1858      H1867   1.083       .  S
C1859      C1860   1.410       .  A
C1859      H1868   1.081       .  S
C1860      C1863   1.497       .  S
C1860      C1861   1.404       .  A
C1861      C1862   1.401       .  A
C1861      H1869   1.083       .  S
C1862      H1870   1.081       .  S
C1863      H1871   1.087       .  S
C1863      C1864   1.347       .  D
C1864      H1872   1.085       .  S
C1865      H1873   1.087       .  S
C1865      C1866   1.347       .  D
C1866      H1874   1.085       .  S
C1875      C1883   1.491       .  S
C1875      C1876   1.405       .  A
C1875      C1880   1.409       .  A
C1876      C1877   1.403       .  A
C1876      H1885   1.084       .  S
C1877      C1878   1.406       .  A
C1877      H1886   1.083       .  S
C1878      C1881   1.480       .  S
C1878      C1879   1.400       .  A
C1879      C1880   1.395       .  A
C1879      H1887   1.084       .  S
C1880      H1888   1.082       .  S
C1881      H1889   1.088       .  S
C1881      C1882   1.342       .  D
C1882      H1890   1.086       .  S
C1883      H1891   1.087       .  S
C1883      C1884   1.346       .  D
C1884      H1892   1.085       .  S
C1893      C1901   1.488       .  S
C1893      C1894   1.402       .  A
C1893      C1898   1.409       .  A
C1894      C1895   1.397       .  A
C1894      H1903   1.084       .  S
C1895      C1896   1.409       .  A
C1895      H1904   1.081       .  S
C1896      C1899   1.491       .  S
C1896      C1897   1.404       .  A
C1897      C1898   1.401       .  A
C1897      H1905   1.083       .  S
C1898      H1906   1.081       .  S
C1899      H1907   1.087       .  S
C1899      C1900   1.345       .  D
C1900      H1908   1.085       .  S
C1901      H1909   1.087       .  S
C1901      C1902   1.345       .  D
C1902      H1910   1.085       .  S
C1911      C1919   1.477       .  S
C1911      C1912   1.402       .  A
C1911      C1916   1.405       .  A
C1912      C1913   1.398       .  A
C1912      H1921   1.084       .  S
C1913      C1914   1.404       .  A
C1913      H1922   1.083       .  S
C1914      C1917   1.478       .  S
C1914      C1915   1.403       .  A
C1915      C1916   1.399       .  A
C1915      H1923   1.084       .  S
C1916      H1924   1.083       .  S
C1917      H1925   1.088       .  S
C1917      C1918   1.342       .  D
C1918      H1926   1.086       .  S
C1919      H1927   1.088       .  S
C1919      C1920   1.344       .  D
C1920      H1928   1.086       .  S
C1929      C1937   1.493       .  S
C1929      C1930   1.406       .  A
C1929      C1934   1.406       .  A
C1930      C1931   1.409       .  A
C1930      H1939   1.083       .  S
C1931      C1932   1.410       .  A
C1931      H1940   1.082       .  S
C1932      C1935   1.492       .  S
C1932      C1933   1.403       .  A
C1933      C1934   1.396       .  A
C1933      H1941   1.084       .  S
C1934      H1942   1.083       .  S
C1935      H1943   1.087       .  S
C1935      C1936   1.350       .  D
C1936      H1944   1.085       .  S
C1937      H1945   1.086       .  S
C1937      C1938   1.346       .  D
C1938      H1946   1.088       .  S
C1947      C1955   1.480       .  S
C1947      C1948   1.401       .  A
C1947      C1952   1.407       .  A
C1948      C1949   1.398       .  A
C1948      H1957   1.083       .  S
C1949      C1950   1.406       .  A
C1949      H1958   1.083       .  S
C1950      C1953   1.478       .  S
C1950      C1951   1.401       .  A
C1951      C1952   1.398       .  A
C1951      H1959   1.083       .  S
C1952      H1960   1.083       .  S
C1953      H1961   1.087       .  S
C1953      C1954   1.344       .  D
C1954      H1962   1.087       .  S
C1955      H1963   1.087       .  S
C1955      C1956   1.341       .  D
C1956      H1964   1.087       .  S
C1965      C1973   1.474       .  S
C1965      C1966   1.400       .  A
C1965      C1970   1.406       .  A
C1966      C1967   1.395       .  A
C1966      H1975   1.084       .  S
C1967      C1968   1.408       .  A
C1967      H1976   1.083       .  S
C1968      C1971   1.482       .  S
C1968      C1969   1.402       .  A
C1969      C1970   1.401       .  A
C1969      H1977   1.083       .  S
C1970      H1978   1.083       .  S
C1971      H1979   1.087       .  S
C1971      C1972   1.341       .  D
C1972      H1980   1.087       .  S
C1973      H1981   1.088       .  S
C1973      C1974   1.342       .  D
C1974      H1982   1.086       .  S
C1983      C1991   1.489       .  S
C1983      C1984   1.404       .  A
C1983      C1988   1.408       .  A
C1984      C1985   1.399       .  A
C1984      H1993   1.083       .  S
C1985      C1986   1.405       .  A
C1985      H1994   1.083       .  S
C1986      C1989   1.487       .  S
C1986      C1987   1.404       .  A
C1987      C1988   1.404       .  A
C1987      H1995   1.083       .  S
C1988      H1996   1.082       .  S
C1989      H1997   1.087       .  S
C1989      C1990   1.345       .  D
C1990      H1998   1.087       .  S
C1991      H1999   1.087       .  S
C1991      C1992   1.349       .  D
C1992      H2000   1.086       .  S
C2001      C2009   1.487   1_554  S
C2001      C2002   1.403       .  A
C2001      C2006   1.411       .  A
C2002      C2003   1.395       .  A
C2002      H2011   1.083       .  S
C2003      C2004   1.405       .  A
C2003      H2012   1.083       .  S
C2004      C2007   1.480       .  S
C2004      C2005   1.400       .  A
C2005      C2006   1.399       .  A
C2005      H2013   1.083       .  S
C2006      H2014   1.079       .  S
C2007      H2015   1.087       .  S
C2007      C2008   1.342       .  D
C2008      H2016   1.087       .  S
C2009      H2017   1.087       .  S
C2009      C2010   1.345       .  D
C2010      H2018   1.082       .  S
C2019      C2027   1.480       .  S
C2019      C2020   1.401       .  A
C2019      C2024   1.407       .  A
C2020      C2021   1.395       .  A
C2020      H2029   1.083       .  S
C2021      C2022   1.405       .  A
C2021      H2030   1.083       .  S
C2022      C2025   1.480       .  S
C2022      C2023   1.403       .  A
C2023      C2024   1.402       .  A
C2023      H2031   1.083       .  S
C2024      H2032   1.083       .  S
C2025      H2033   1.087       .  S
C2025      C2026   1.343       .  D
C2026      H2034   1.087       .  S
C2027      H2035   1.087       .  S
C2027      C2028   1.343       .  D
C2028      H2036   1.086       .  S
C2037      C2045   1.485       .  S
C2037      C2038   1.401       .  A
C2037      C2042   1.409       .  A
C2038      C2039   1.396       .  A
C2038      H2047   1.083       .  S
C2039      C2040   1.408       .  A
C2039      H2048   1.083       .  S
C2040      C2043   1.488       .  S
C2040      C2041   1.402       .  A
C2041      C2042   1.402       .  A
C2041      H2049   1.083       .  S
C2042      H2050   1.082       .  S
C2043      H2051   1.086       .  S
C2043      C2044   1.343       .  D
C2044      H2052   1.086       .  S
C2045      H2053   1.087       .  S
C2045      C2046   1.344       .  D
C2046      H2054   1.085       .  S
C2055      C2063   1.493       .  S
C2055      C2056   1.402       .  A
C2055      C2060   1.409       .  A
C2056      C2057   1.403       .  A
C2056      H2065   1.083       .  S
C2057      C2058   1.414       .  A
C2057      H2066   1.079       .  S
C2058      C2061   1.496       .  S
C2058      C2059   1.402       .  A
C2059      C2060   1.397       .  A
C2059      H2067   1.083       .  S
C2060      H2068   1.082       .  S
C2061      H2069   1.087       .  S
C2061      C2062   1.345       .  D
C2062      H2070   1.082       .  S
C2063      H2071   1.086       .  S
C2063      C2064   1.343       .  D
C2064      H2072   1.086       .  S
C2073      C2081   1.490       .  S
C2073      C2074   1.403   1_554  A
C2073      C2078   1.408   1_554  A
C2074      C2075   1.400       .  A
C2074      H2083   1.084   1_556  S
C2075      C2076   1.408       .  A
C2075      H2084   1.082       .  S
C2076      C2079   1.493       .  S
C2076      C2077   1.405       .  A
C2077      C2078   1.404       .  A
C2077      H2085   1.083       .  S
C2078      H2086   1.083       .  S
C2079      H2087   1.086       .  S
C2079      C2080   1.347       .  D
C2080      H2088   1.086       .  S
C2081      H2089   1.087       .  S
C2081      C2082   1.345       .  D
C2082      H2090   1.086       .  S
C2091      C2099   1.480       .  S
C2091      C2092   1.398       .  A
C2091      C2096   1.408       .  A
C2092      C2093   1.392       .  A
C2092      H2101   1.084       .  S
C2093      C2094   1.409       .  A
C2093      H2102   1.082       .  S
C2094      C2097   1.491       .  S
C2094      C2095   1.405       .  A
C2095      C2096   1.405       .  A
C2095      H2103   1.083       .  S
C2096      H2104   1.083       .  S
C2097      H2105   1.086       .  S
C2097      C2098   1.344       .  D
C2098      H2106   1.086       .  S
C2099      H2107   1.087       .  S
C2099      C2100   1.342       .  D
C2100      H2108   1.086       .  S
C2109      C2117   1.485       .  S
C2109      C2110   1.403       .  A
C2109      C2114   1.408       .  A
C2110      C2111   1.397       .  A
C2110      H2119   1.083       .  S
C2111      C2112   1.407       .  A
C2111      H2120   1.081       .  S
C2112      C2115   1.486       .  S
C2112      C2113   1.404       .  A
C2113      C2114   1.399       .  A
C2113      H2121   1.083       .  S
C2114      H2122   1.081       .  S
C2115      H2123   1.087       .  S
C2115      C2116   1.346       .  D
C2116      H2124   1.084       .  S
C2117      H2125   1.087       .  S
C2117      C2118   1.346       .  D
C2118      H2126   1.085       .  S
C2127      C2135   1.479       .  S
C2127      C2128   1.400       .  A
C2127      C2132   1.408       .  A
C2128      C2129   1.396       .  A
C2128      H2137   1.083       .  S
C2129      C2130   1.408       .  A
C2129      H2138   1.083       .  S
C2130      C2133   1.480       .  S
C2130      C2131   1.401       .  A
C2131      C2132   1.398       .  A
C2131      H2139   1.083       .  S
C2132      H2140   1.083       .  S
C2133      H2141   1.087       .  S
C2133      C2134   1.341       .  D
C2134      H2142   1.086       .  S
C2135      H2143   1.087       .  S
C2135      C2136   1.341       .  D
C2136      H2144   1.086       .  S
C2145      C2153   1.488       .  S
C2145      C2146   1.404       .  A
C2145      C2150   1.408       .  A
C2146      C2147   1.396       .  A
C2146      H2155   1.084       .  S
C2147      C2148   1.405       .  A
C2147      H2156   1.082       .  S
C2148      C2151   1.487       .  S
C2148      C2149   1.405       .  A
C2149      C2150   1.403       .  A
C2149      H2157   1.083       .  S
C2150      H2158   1.081       .  S
C2151      H2159   1.087       .  S
C2151      C2152   1.346       .  D
C2152      H2160   1.086       .  S
C2153      H2161   1.088       .  S
C2153      C2154   1.350       .  D
C2154      H2162   1.085       .  S
C2163      C2171   1.490       .  S
C2163      C2164   1.403       .  A
C2163      C2168   1.409       .  A
C2164      C2165   1.393       .  A
C2164      H2173   1.084       .  S
C2165      C2166   1.402       .  A
C2165      H2174   1.084       .  S
C2166      C2169   1.491       .  S
C2166      C2167   1.411       .  A
C2167      C2168   1.407       .  A
C2167      H2175   1.081   1_554  S
C2168      H2176   1.081   1_554  S
C2169      H2177   1.087       .  S
C2169      C2170   1.348       .  D
C2170      H2178   1.084       .  S
C2171      H2179   1.087       .  S
C2171      C2172   1.351   1_554  D
C2172      H2180   1.084       .  S
C2181      C2189   1.484       .  S
C2181      C2182   1.402       .  A
C2181      C2186   1.409       .  A
C2182      C2183   1.395       .  A
C2182      H2191   1.084       .  S
C2183      C2184   1.406       .  A
C2183      H2192   1.083       .  S
C2184      C2187   1.485       .  S
C2184      C2185   1.403       .  A
C2185      C2186   1.402       .  A
C2185      H2193   1.083       .  S
C2186      H2194   1.082       .  S
C2187      H2195   1.086       .  S
C2187      C2188   1.344       .  D
C2188      H2196   1.086       .  S
C2189      H2197   1.087       .  S
C2189      C2190   1.346       .  D
C2190      H2198   1.085       .  S
C2199      C2207   1.478       .  S
C2199      C2200   1.402       .  A
C2199      C2204   1.407       .  A
C2200      C2201   1.397       .  A
C2200      H2209   1.083       .  S
C2201      C2202   1.406       .  A
C2201      H2210   1.083       .  S
C2202      C2205   1.474       .  S
C2202      C2203   1.400       .  A
C2203      C2204   1.396       .  A
C2203      H2211   1.083       .  S
C2204      H2212   1.083       .  S
C2205      H2213   1.088       .  S
C2205      C2206   1.341       .  D
C2206      H2214   1.086       .  S
C2207      H2215   1.087       .  S
C2207      C2208   1.342       .  D
C2208      H2216   1.086       .  S
C2217      C2225   1.489       .  S
C2217      C2218   1.404       .  A
C2217      C2222   1.407       .  A
C2218      C2219   1.404       .  A
C2218      H2227   1.083       .  S
C2219      C2220   1.408       .  A
C2219      H2228   1.083       .  S
C2220      C2223   1.488       .  S
C2220      C2221   1.403       .  A
C2221      C2222   1.401       .  A
C2221      H2229   1.083       .  S
C2222      H2230   1.083       .  S
C2223      H2231   1.087       .  S
C2223      C2224   1.347       .  D
C2224      H2232   1.087       .  S
C2225      H2233   1.086       .  S
C2225      C2226   1.344       .  D
C2226      H2234   1.087       .  S
C2235      C2243   1.489       .  S
C2235      C2236   1.404       .  A
C2235      C2240   1.407       .  A
C2236      C2237   1.402       .  A
C2236      H2245   1.083       .  S
C2237      C2238   1.408       .  A
C2237      H2246   1.082       .  S
C2238      C2241   1.487       .  S
C2238      C2239   1.402       .  A
C2239      C2240   1.395       .  A
C2239      H2247   1.083       .  S
C2240      H2248   1.082       .  S
C2241      H2249   1.087       .  S
C2241      C2242   1.345       .  D
C2242      H2250   1.084       .  S
C2243      H2251   1.086       .  S
C2243      C2244   1.346       .  D
C2244      H2252   1.085       .  S
C2253      C2261   1.489       .  S
C2253      C2254   1.403       .  A
C2253      C2258   1.407       .  A
C2254      C2255   1.403       .  A
C2254      H2263   1.083       .  S
C2255      C2256   1.410       .  A
C2255      H2264   1.081       .  S
C2256      C2259   1.490       .  S
C2256      C2257   1.404       .  A
C2257      C2258   1.397       .  A
C2257      H2265   1.083       .  S
C2258      H2266   1.083       .  S
C2259      H2267   1.087       .  S
C2259      C2260   1.348       .  D
C2260      H2268   1.084       .  S
C2261      H2269   1.086       .  S
C2261      C2262   1.344       .  D
C2262      H2270   1.086       .  S
C2271      C2279   1.484       .  S
C2271      C2272   1.404       .  A
C2271      C2276   1.407       .  A
C2272      C2273   1.402       .  A
C2272      H2281   1.083       .  S
C2273      C2274   1.406       .  A
C2273      H2282   1.083       .  S
C2274      C2277   1.478       .  S
C2274      C2275   1.401       .  A
C2275      C2276   1.396       .  A
C2275      H2283   1.083       .  S
C2276      H2284   1.083       .  S
C2277      H2285   1.088       .  S
C2277      C2278   1.344       .  D
C2278      H2286   1.086       .  S
C2279      H2287   1.087       .  S
C2279      C2280   1.344       .  D
C2280      H2288   1.086       .  S
C2289      C2297   1.485       .  S
C2289      C2290   1.401       .  A
C2289      C2294   1.408       .  A
C2290      C2291   1.397       .  A
C2290      H2299   1.083       .  S
C2291      C2292   1.409       .  A
C2291      H2300   1.082       .  S
C2292      C2295   1.486       .  S
C2292      C2293   1.403       .  A
C2293      C2294   1.399       .  A
C2293      H2301   1.083       .  S
C2294      H2302   1.082       .  S
C2295      H2303   1.087       .  S
C2295      C2296   1.345       .  D
C2296      H2304   1.085       .  S
C2297      H2305   1.087       .  S
C2297      C2298   1.343       .  D
C2298      H2306   1.086       .  S
C2307      C2315   1.489       .  S
C2307      C2308   1.404       .  A
C2307      C2312   1.408       .  A
C2308      C2309   1.399       .  A
C2308      H2317   1.083       .  S
C2309      C2310   1.406       .  A
C2309      H2318   1.083       .  S
C2310      C2313   1.489       .  S
C2310      C2311   1.404       .  A
C2311      C2312   1.402       .  A
C2311      H2319   1.083       .  S
C2312      H2320   1.082       .  S
C2313      H2321   1.087       .  S
C2313      C2314   1.346       .  D
C2314      H2322   1.086       .  S
C2315      H2323   1.087       .  S
C2315      C2316   1.349       .  D
C2316      H2324   1.085       .  S
C2325      C2333   1.494       .  S
C2325      C2326   1.410       .  A
C2325      C2330   1.402       .  A
C2326      C2327   1.406       .  A
C2326      H2335   1.082       .  S
C2327      C2328   1.409       .  A
C2327      H2336   1.081       .  S
C2328      C2331   1.496       .  S
C2328      C2329   1.406       .  A
C2329      C2330   1.399       .  A
C2329      H2337   1.083       .  S
C2330      H2338   1.083       .  S
C2331      H2339   1.087       .  S
C2331      C2332   1.352       .  D
C2332      H2340   1.084       .  S
C2333      H2341   1.087       .  S
C2333      C2334   1.347       .  D
C2334      H2342   1.085       .  S
C2343      C2351   1.485       .  S
C2343      C2344   1.402       .  A
C2343      C2348   1.408       .  A
C2344      C2345   1.397       .  A
C2344      H2353   1.083       .  S
C2345      C2346   1.406       .  A
C2345      H2354   1.083       .  S
C2346      C2349   1.484       .  S
C2346      C2347   1.402       .  A
C2347      C2348   1.402       .  A
C2347      H2355   1.083       .  S
C2348      H2356   1.082       .  S
C2349      H2357   1.086       .  S
C2349      C2350   1.343       .  D
C2350      H2358   1.087       .  S
C2351      H2359   1.087       .  S
C2351      C2352   1.346       .  D
C2352      H2360   1.086       .  S
C2361      C2369   1.491       .  S
C2361      C2362   1.404       .  A
C2361      C2366   1.408       .  A
C2362      C2363   1.402       .  A
C2362      H2371   1.083       .  S
C2363      C2364   1.408       .  A
C2363      H2372   1.082       .  S
C2364      C2367   1.491       .  S
C2364      C2365   1.404       .  A
C2365      C2366   1.401       .  A
C2365      H2373   1.083       .  S
C2366      H2374   1.082       .  S
C2367      H2375   1.087       .  S
C2367      C2368   1.348       .  D
C2368      H2376   1.086       .  S
C2369      H2377   1.087       .  S
C2369      C2370   1.346       .  D
C2370      H2378   1.086       .  S
C2379      C2387   1.497       .  S
C2379      C2380   1.407       .  A
C2379      C2384   1.410       .  A
C2380      C2381   1.404       .  A
C2380      H2389   1.083       .  S
C2381      C2382   1.406       .  A
C2381      H2390   1.083       .  S
C2382      C2385   1.482       .  S
C2382      C2383   1.400       .  A
C2383      C2384   1.396       .  A
C2383      H2391   1.084       .  S
C2384      H2392   1.080       .  S
C2385      H2393   1.088       .  S
C2385      C2386   1.345       .  D
C2386      H2394   1.086       .  S
C2387      H2395   1.087       .  S
C2387      C2388   1.347       .  D
C2388      H2396   1.083       .  S
C2397      C2405   1.489       .  S
C2397      C2398   1.402       .  A
C2397      C2402   1.408       .  A
C2398      C2399   1.399       .  A
C2398      H2407   1.084       .  S
C2399      C2400   1.410       .  A
C2399      H2408   1.080       .  S
C2400      C2403   1.491       .  S
C2400      C2401   1.403       .  A
C2401      C2402   1.399       .  A
C2401      H2409   1.084       .  S
C2402      H2410   1.081       .  S
C2403      H2411   1.088       .  S
C2403      C2404   1.345       .  D
C2404      H2412   1.085       .  S
C2405      H2413   1.087       .  S
C2405      C2406   1.345       .  D
C2406      H2414   1.086       .  S
C2415      C2423   1.488       .  S
C2415      C2416   1.403       .  A
C2415      C2420   1.409       .  A
C2416      C2417   1.396       .  A
C2416      H2425   1.084       .  S
C2417      C2418   1.406       .  A
C2417      H2426   1.082       .  S
C2418      C2421   1.487       .  S
C2418      C2419   1.404       .  A
C2419      C2420   1.403       .  A
C2419      H2427   1.083       .  S
C2420      H2428   1.081       .  S
C2421      H2429   1.087       .  S
C2421      C2422   1.346       .  D
C2422      H2430   1.086       .  S
C2423      H2431   1.087       .  S
C2423      C2424   1.348       .  D
C2424      H2432   1.085       .  S
