geometry optimzed in LAMMPS
_audit_creation_date              2020-12-01 
_audit_creation_method            'lammps2cif' 
_symmetry_space_group_name_H-M    'P1' 
_symmetry_Int_Tables_number       1 
_symmetry_cell_setting            triclinic 
loop_ 
_symmetry_equiv_pos_as_xyz 
  x,y,z 
_cell_length_a                    44.61672584 
_cell_length_b                    44.62552165700982 
_cell_length_c                    27.30865091000295 
_cell_angle_alpha                 90.0022914457843 
_cell_angle_beta                  89.9979103316514 
_cell_angle_gamma                 89.9989844546116 
loop_ 
_atom_site_label 
_atom_site_type_symbol 
_atom_site_fract_x 
_atom_site_fract_y 
_atom_site_fract_z 
_atom_site_charge 
O1          O  0.22032932  0.35145711  0.98157168    -0.86800
O2          O  0.25098884  0.37488290  0.05784456    -0.83800
C3          C  0.27303288  0.37714050  0.08620445     0.96700
O4          O  0.29988326  0.37946172  0.07024389    -0.83900
O5          O  0.32049959  0.32530553  0.03961765    -0.86500
C6          C  0.32023015  0.30130389  0.01578386     1.01200
O7          O  0.30724581  0.29957486  0.47478683    -0.79300
O8          O  0.24730104  0.31036588  0.48869550    -0.79500
C9          C  0.22277104  0.32393117  0.99330706     1.01100
O10         O  0.25173142  0.39291765  0.41687408    -0.86800
O11         O  0.27804594  0.42040827  0.50478209    -0.83900
C12         C  0.30592856  0.42321167  0.49799814     0.96700
O13         O  0.31907036  0.40312810  0.97436931    -0.83900
O14         O  0.34219311  0.34685017  0.44817717    -0.86500
C15         C  0.33371760  0.33983354  0.40506729     1.01200
O16         O  0.30635542  0.34102967  0.39428652    -0.79300
O17         O  0.24524173  0.34512437  0.40106464    -0.79500
C18         C  0.24408713  0.37214321  0.38775295     1.01100
Cr19       Cr  0.25246663  0.38345851  0.48837783     1.93700
Cr20       Cr  0.31814756  0.36400573  0.00609298     1.93200
Cr21       Cr  0.27690248  0.32616718  0.44241356     1.39100
O22         O  0.28254744  0.35751027  0.48014222    -1.24500
O23         O  0.36403633  0.20777551  0.29592920    -0.86800
O24         O  0.38745486  0.23842939  0.21964453    -0.83800
C25         C  0.38971379  0.26046757  0.19128181     0.96700
O26         O  0.39202861  0.28731384  0.20723917    -0.83900
O27         O  0.33786385  0.30791848  0.23786178    -0.86500
C28         C  0.31385821  0.30764926  0.26169724     1.01200
O29         O  0.31212714  0.29466722  0.30269207    -0.79300
O30         O  0.32292952  0.23472955  0.28879968    -0.79500
C31         C  0.33650489  0.21020826  0.28418900     1.01100
O32         O  0.40549728  0.23918553  0.36061310    -0.86800
O33         O  0.43298376  0.26549553  0.27269523    -0.83900
C34         C  0.43577810  0.29337409  0.27947158     0.96700
O35         O  0.41569294  0.30650536  0.30311443    -0.83900
O36         O  0.35940810  0.32962046  0.32929607    -0.86500
C37         C  0.35239277  0.32115182  0.37240912     1.01200
O38         O  0.35358358  0.29379505  0.38319654    -0.79300
O39         O  0.35769561  0.23269150  0.37643151    -0.79500
C40         C  0.38472124  0.23153918  0.38973675     1.01100
Cr41       Cr  0.39603419  0.23991381  0.28911111     1.93700
Cr42       Cr  0.37656746  0.30557625  0.27138753     1.93200
Cr43       Cr  0.33872718  0.26433710  0.33507455     1.39100
O44         O  0.37007527  0.26998399  0.29734428    -1.24500
O45         O  0.25100104  0.11081749  0.30781884    -0.86800
O46         O  0.22034258  0.13423820  0.23153898    -0.83800
C47         C  0.22278055  0.16176277  0.24327906     0.96700
O48         O  0.24730883  0.17533187  0.23866812    -0.83900
O49         O  0.30725381  0.18612598  0.22477365    -0.86500
C50         C  0.32023519  0.18439762  0.26577306     1.01200
O51         O  0.32050656  0.16039578  0.28960291    -0.79300
O52         O  0.29989544  0.10623895  0.32021994    -0.79500
C53         C  0.27304453  0.10855626  0.33617948     1.01100
O54         O  0.27806099  0.06529402  0.25475458    -0.86800
O55         O  0.25175028  0.09277750  0.16684861    -0.83900
C56         C  0.24410527  0.11354944  0.13772622     0.96700
O57         O  0.24525955  0.14056980  0.15103427    -0.83900
O58         O  0.30637211  0.14466869  0.14426787    -0.86500
C59         C  0.33373334  0.14586779  0.15505189     1.01200
O60         O  0.34220755  0.13885306  0.19816273    -0.79300
O61         O  0.31908593  0.08257419  0.22434714    -0.79500
C62         C  0.30594402  0.06249308  0.24797799     1.01100
Cr63       Cr  0.25248152  0.10224039  0.23835038     1.93700
Cr64       Cr  0.27691504  0.15953105  0.19239075     1.93200
Cr65       Cr  0.31816034  0.12169626  0.25607323     1.39100
O66         O  0.28256070  0.12818959  0.23011903    -1.24500
O67         O  0.38746145  0.24727590  0.46964518    -0.86800
O68         O  0.36403555  0.27792812  0.04593062    -0.83800
C69         C  0.33650404  0.27549329  0.03419018     0.96700
O70         O  0.32293281  0.25096963  0.03879049    -0.83900
O71         O  0.31213714  0.19102898  0.05267532    -0.86500
C72         C  0.31387143  0.17804130  0.01168371     1.01200
O73         O  0.33787866  0.17777258  0.48785074    -0.79300
O74         O  0.39204128  0.19839143  0.45723433    -0.79500
C75         C  0.38972163  0.22523748  0.44128011     1.01100
O76         O  0.43299324  0.22021465  0.02269573    -0.86800
O77         O  0.40549713  0.24652139  0.11061563    -0.83900
C78         C  0.38471809  0.25416540  0.13973680     0.96700
O79         O  0.35769354  0.25301102  0.12642630    -0.83900
O80         O  0.35359075  0.19190838  0.13318529    -0.86500
C81         C  0.35240685  0.16455112  0.12239751     1.01200
O82         O  0.35942655  0.15608168  0.07928553    -0.79300
O83         O  0.41570681  0.17920566  0.05311391    -0.79500
C84         C  0.43579208  0.19233688  0.02947500     1.01100
Cr85       Cr  0.39603818  0.24579229  0.03911179     1.93700
Cr86       Cr  0.33873190  0.22136319  0.08506345     1.93200
Cr87       Cr  0.37658235  0.18012669  0.02138006     1.39100
O88         O  0.37008249  0.21571921  0.04733690    -1.24500
O89         O  0.29050390  0.13423694  0.98153889    -0.86800
O90         O  0.25984769  0.11081002  0.05781847    -0.83800
C91         C  0.23780426  0.10854901  0.08618177     0.96700
O92         O  0.21095379  0.10622674  0.07022571    -0.83900
O93         O  0.19033092  0.16038259  0.03961505    -0.86500
C94         C  0.19060026  0.18438568  0.01578758     1.01200
O95         O  0.20358360  0.18611594  0.47478839    -0.79300
O96         O  0.26353150  0.17532753  0.48867565    -0.79500
C97         C  0.28806249  0.16176269  0.99327767     1.01100
O98         O  0.25910087  0.09277589  0.41684566    -0.86800
O99         O  0.23279236  0.06528343  0.50475526    -0.83900
C100        C  0.20490980  0.06247865  0.49797728     0.96700
O101        O  0.19176658  0.08256100  0.97435149    -0.83900
O102        O  0.16863713  0.13883730  0.44817530    -0.86500
C103        C  0.17711122  0.14585451  0.40506485     1.01200
O104        O  0.20447291  0.14466017  0.39427930    -0.79300
O105        O  0.26558558  0.14056993  0.40103997    -0.79500
C106        C  0.26674305  0.11355085  0.38772607     1.01100
Cr107      Cr  0.25836815  0.10223463  0.48835025     1.93700
Cr108      Cr  0.19268622  0.12168283  0.00608221     1.93200
Cr109      Cr  0.23392686  0.15952503  0.44240091     1.39100
O110        O  0.22828542  0.12818141  0.48012613    -1.24500
O111        O  0.14680004  0.27791605  0.29596121    -0.86800
O112        O  0.12337934  0.24726532  0.21967082    -0.83800
C113        C  0.12111687  0.22522764  0.19130472     0.96700
O114        O  0.11880044  0.19838127  0.20725790    -0.83900
O115        O  0.17296384  0.17776717  0.23786645    -0.86500
C116        C  0.19697150  0.17803710  0.26169654     1.01200
O117        O  0.19870423  0.19101963  0.30269111    -0.79300
O118        O  0.18790557  0.25096052  0.28881771    -0.79500
C119        C  0.17433071  0.27548326  0.28421648     1.01100
O120        O  0.10533859  0.24650620  0.36064136    -0.86800
O121        O  0.07784900  0.22020309  0.27272222    -0.83900
C122        C  0.07505254  0.19232494  0.27949389     0.96700
O123        O  0.09513602  0.17919232  0.30313451    -0.83900
O124        O  0.15141841  0.15606862  0.32930095    -0.86500
C125        C  0.15843552  0.16453661  0.37241382     1.01200
O126        O  0.15724771  0.19189316  0.38320477    -0.79300
O127        O  0.15314116  0.25299525  0.37645488    -0.79500
C128        C  0.12611558  0.25414990  0.38976310     1.01100
Cr129      Cr  0.11480076  0.24578000  0.28913865     1.93700
Cr130      Cr  0.13426078  0.18011570  0.27140005     1.93200
Cr131      Cr  0.17210666  0.22135079  0.33508683     1.39100
O132        O  0.14075767  0.21570738  0.29736061    -1.24500
O133        O  0.25983133  0.37487314  0.30784381    -0.86800
O134        O  0.29048929  0.35144966  0.23155778    -0.83800
C135        C  0.28804942  0.32392409  0.24329135     0.96700
O136        O  0.26352124  0.31035679  0.23868114    -0.83900
O137        O  0.20357750  0.29956603  0.22479668    -0.86500
C138        C  0.19059967  0.30129389  0.26580018     1.01200
O139        O  0.19032819  0.32529687  0.28963267    -0.79300
O140        O  0.21093748  0.37945770  0.32024711    -0.79500
C141        C  0.23778751  0.37713773  0.33620604     1.01100
O142        O  0.23277456  0.42039600  0.25477822    -0.86800
O143        O  0.25908691  0.39291092  0.16687487    -0.83900
C144        C  0.26673116  0.37213899  0.13774860     0.96700
O145        O  0.26557304  0.34511837  0.15105153    -0.83900
O146        O  0.20445927  0.34102352  0.14429439    -0.86500
C147        C  0.17709822  0.33982331  0.15508288     1.01200
O148        O  0.16862522  0.34683605  0.19819670    -0.79300
O149        O  0.19175013  0.40311470  0.22437071    -0.79500
C150        C  0.20489280  0.42319882  0.24799443     1.01100
Cr151      Cr  0.25835293  0.38344866  0.23837507     1.93700
Cr152      Cr  0.23391633  0.32615923  0.19241056     1.93200
Cr153      Cr  0.19267365  0.36399554  0.25610234     1.39100
O154        O  0.22827289  0.35750064  0.23014388    -1.21300
O155        O  0.12337354  0.23841518  0.46966968    -0.86800
O156        O  0.14679615  0.20776298  0.04595031    -0.83800
C157        C  0.17432755  0.21019678  0.03420489     0.96700
O158        O  0.18789961  0.23472018  0.03880824    -0.83900
O159        O  0.19869672  0.29466241  0.05270228    -0.86500
C160        C  0.19696270  0.30765168  0.01171365     1.01200
O161        O  0.17295670  0.30791951  0.48788166    -0.79300
O162        O  0.11879798  0.28729988  0.45726128    -0.79500
C163        C  0.12111564  0.26045300  0.44130647     1.01100
O164        O  0.07783981  0.26547863  0.02271764    -0.86800
O165        O  0.10533339  0.23917351  0.11064106    -0.83900
C166        C  0.12611214  0.23152918  0.13975965     0.96700
O167        O  0.15313663  0.23268101  0.12644581    -0.83900
O168        O  0.15724094  0.29378294  0.13321296    -0.86500
C169        C  0.15842445  0.32114029  0.12242864     1.01200
O170        O  0.15140413  0.32961017  0.07931901    -0.79300
O171        O  0.09512385  0.30648927  0.05313512    -0.79500
C172        C  0.07504213  0.29335798  0.02948895     1.01100
Cr173      Cr  0.11479420  0.23990044  0.03913591     1.93700
Cr174      Cr  0.17210020  0.26432801  0.08508639     1.93200
Cr175      Cr  0.13425178  0.30556569  0.02140910     1.39100
O176        O  0.14075011  0.26997315  0.04736286    -1.24500
O177        O  0.47034561  0.10145948  0.23152733    -0.86800
O178        O  0.00100271  0.12488170  0.30781047    -0.83800
C179        C  0.02304626  0.12714291  0.33617164     0.96700
O180        O  0.04989696  0.12945961  0.32021313    -0.83900
O181        O  0.07050630  0.07530270  0.28958821    -0.86500
C182        C  0.07023548  0.05130073  0.26575509     1.01200
O183        O  0.05725893  0.04957418  0.22475168    -0.79300
O184        O  0.49731477  0.06036641  0.23864735    -0.79500
C185        C  0.47278591  0.07393375  0.24326077     1.01100
O186        O  0.00174991  0.14292161  0.16684130    -0.86800
O187        O  0.02805894  0.17040569  0.25475264    -0.83900
C188        C  0.05594279  0.17320677  0.24798493     0.96700
O189        O  0.06908798  0.15312729  0.22435082    -0.83900
O190        O  0.09221019  0.09684597  0.19815247    -0.86500
C191        C  0.08373607  0.08983195  0.15504029     1.01200
O192        O  0.05637532  0.09103504  0.14425531    -0.79300
O193        O  0.99526225  0.09512923  0.15102164    -0.79500
C194        C  0.99410618  0.12214922  0.13771651     1.01100
Cr195      Cr  0.00248220  0.13345865  0.23834272     1.93700
Cr196      Cr  0.06816208  0.11400302  0.25606542     1.93200
Cr197      Cr  0.02691946  0.07616956  0.19237383     1.39100
O198        O  0.03256300  0.10751061  0.23010795    -1.24500
O199        O  0.11403650  0.45776396  0.04590774    -0.86800
O200        O  0.13745872  0.98841627  0.46962585    -0.83800
C201        C  0.13971841  0.01045482  0.44126412     0.96700
O202        O  0.14204371  0.03730004  0.45722257    -0.83900
O203        O  0.08788265  0.05792361  0.48783787    -0.86500
C204        C  0.06387480  0.05765454  0.01166706     1.01200
O205        O  0.06213798  0.04466479  0.05265584    -0.79300
O206        O  0.07293411  0.48472315  0.03876596    -0.79500
C207        C  0.08650596  0.46019918  0.03416223     1.01100
O208        O  0.15549831  0.48916981  0.11059576    -0.86800
O209        O  0.18299379  0.01547644  0.02267686    -0.83900
C210        C  0.18579356  0.04335354  0.02946678     0.96700
O211        O  0.16570792  0.05648334  0.05310906    -0.83900
O212        O  0.10942932  0.07961250  0.07927563    -0.86500
C213        C  0.10240718  0.07114428  0.12238572     1.01200
O214        O  0.10358713  0.04378675  0.13317076    -0.79300
O215        O  0.10769430  0.98268354  0.12640674    -0.79500
C216        C  0.13471910  0.48152815  0.13971728     1.01100
Cr217      Cr  0.14603858  0.48989931  0.03909173     1.93700
Cr218      Cr  0.12658503  0.05556588  0.02136994     1.93200
Cr219      Cr  0.08873166  0.01433055  0.08504415     1.39100
O220        O  0.12008328  0.01997362  0.04732125    -1.24500
O221        O  0.00099111  0.36080789  0.05779908    -0.86800
O222        O  0.47033454  0.38423535  0.98152346    -0.83800
C223        C  0.47277542  0.41176135  0.99325858     0.96700
O224        O  0.49730610  0.42532605  0.48865222    -0.83900
O225        O  0.05725198  0.43611577  0.47474940    -0.86500
C226        C  0.07023341  0.43438839  0.01574878     1.01200
O227        O  0.07050172  0.41038737  0.03958092    -0.79300
O228        O  0.04988593  0.35623366  0.07020495    -0.79500
C229        C  0.02303426  0.35854998  0.08616102     1.01100
O230        O  0.02804785  0.31528191  0.50473911    -0.86800
O231        O  0.00173893  0.34277289  0.41682578    -0.83900
C232        C  0.99409394  0.36354774  0.38770759     0.96700
O233        O  0.99524909  0.39056632  0.40102207    -0.83900
O234        O  0.05636126  0.39465433  0.39424976    -0.86500
C235        C  0.08372261  0.39585417  0.40503169     1.01200
O236        O  0.09219877  0.38883757  0.44814108    -0.79300
O237        O  0.06907919  0.33255706  0.97434654    -0.79500
C238        C  0.05593260  0.31247853  0.49797815     1.01100
Cr239      Cr  0.00247141  0.35223255  0.48833100     1.93700
Cr240      Cr  0.02690891  0.40952193  0.44237372     1.93200
Cr241      Cr  0.06815250  0.37168492  0.00605750     1.39100
O242        O  0.03255287  0.37817938  0.48010160    -1.24500
O243        O  0.13745150  0.49726696  0.21962735    -0.86800
O244        O  0.11403253  0.02792118  0.29591787    -0.83800
C245        C  0.08650256  0.02548930  0.28417168     0.96700
O246        O  0.07292692  0.00096805  0.28877595    -0.83900
O247        O  0.06212643  0.44102819  0.30265063    -0.86500
C248        C  0.06386209  0.42804088  0.26165883     1.01200
O249        O  0.08787058  0.42776896  0.23782889    -0.79300
O250        O  0.14203649  0.44838302  0.20722145    -0.79500
C251        C  0.13971526  0.47522825  0.19126369     1.01100
O252        O  0.18298100  0.47020239  0.27268212    -0.86800
O253        O  0.15549213  0.49651063  0.36059498    -0.83900
C254        C  0.13471573  0.50415422  0.38972048     0.96700
O255        O  0.10768953  0.50300092  0.37641594    -0.83900
O256        O  0.10357556  0.44189814  0.38316797    -0.86500
C257        C  0.10239262  0.41454095  0.37237747     1.01200
O258        O  0.10941058  0.40607379  0.32926432    -0.79300
O259        O  0.16568952  0.42919991  0.30311544    -0.79500
C260        C  0.18577745  0.44232645  0.27947683     1.01100
Cr261      Cr  0.14603013  0.49578314  0.28909453     1.93700
Cr262      Cr  0.08872226  0.47135785  0.33504742     1.93200
Cr263      Cr  0.12657108  0.43011988  0.27136574     1.39100
O264        O  0.12007202  0.46571236  0.29732103    -1.24500
O265        O  0.04049268  0.38423849  0.23151507    -0.86800
O266        O  0.50983503  0.36081550  0.30779792    -0.83800
C267        C  0.48779181  0.35855447  0.33616191     0.96700
O268        O  0.46094053  0.35624166  0.32020634    -0.83900
O269        O  0.44033579  0.41040092  0.28958898    -0.86500
C270        C  0.44060523  0.43440176  0.26575570     1.01200
O271        O  0.45358125  0.43612692  0.22475057    -0.79300
O272        O  0.01352512  0.42533326  0.23863935    -0.79500
C273        C  0.03805361  0.41176497  0.24324880     1.01100
O274        O  0.00908545  0.34277759  0.16682690    -0.86800
O275        O  0.48277419  0.31529441  0.25473584    -0.83900
C276        C  0.45489016  0.31249472  0.24796977     0.96700
O277        O  0.44174600  0.33257607  0.22434254    -0.83900
O278        O  0.41862935  0.38885815  0.19815313    -0.86500
C279        C  0.42710377  0.39586899  0.15503950     1.01200
O280        O  0.45446449  0.39466409  0.14425155    -0.79300
O281        O  0.51557738  0.39056926  0.15101280    -0.79500
C282        C  0.01673157  0.36354931  0.13770459     1.01100
Cr283      Cr  0.00835421  0.35224016  0.23832907     1.93700
Cr284      Cr  0.44267620  0.37170013  0.25606218     1.93200
Cr285      Cr  0.48392027  0.40953016  0.19236833     1.39100
O286        O  0.47827540  0.37819010  0.23010110    -1.24500
O287        O  0.39680222  0.02793223  0.04591569    -0.86800
O288        O  0.37337801  0.49727902  0.46963565    -0.83800
C289        C  0.37111912  0.47524064  0.44127120     0.96700
O290        O  0.36879741  0.44839482  0.45722663    -0.83900
O291        O  0.42295979  0.42777340  0.48783592    -0.86500
C292        C  0.44696747  0.42804211  0.01166609     1.01200
O293        O  0.44870280  0.44103240  0.05265440    -0.79300
O294        O  0.43790576  0.00097395  0.03876809    -0.79500
C295        C  0.42433379  0.02549737  0.03416897     1.01100
O296        O  0.35534237  0.49652489  0.11060784    -0.86800
O297        O  0.32784593  0.47021612  0.02269186    -0.83900
C298        C  0.32504730  0.44233915  0.02948048     0.96700
O299        O  0.34513467  0.42921044  0.05311647    -0.83900
O300        O  0.40141351  0.40608555  0.07927517    -0.86500
C301        C  0.40843353  0.41455514  0.12238589     1.01200
O302        O  0.40725267  0.44191298  0.13317221    -0.79300
O303        O  0.40314596  0.50301564  0.12641102    -0.79500
C304        C  0.37612147  0.50416903  0.13972609     1.01100
Cr305      Cr  0.36480054  0.49579558  0.03910257     1.93700
Cr306      Cr  0.38425726  0.43013005  0.02137198     1.93200
Cr307      Cr  0.42210865  0.47136759  0.08504578     1.39100
O308        O  0.39075744  0.46572287  0.04732527    -1.24500
O309        O  0.50984898  0.12488694  0.05780964    -0.86800
O310        O  0.04050710  0.10145982  0.98152814    -0.83800
C311        C  0.03806591  0.07393326  0.99326120     0.96700
O312        O  0.01353632  0.06036854  0.48865320    -0.83900
O313        O  0.45358962  0.04957976  0.47475867    -0.86500
C314        C  0.44060622  0.05130864  0.01575890     1.01200
O315        O  0.44033712  0.07531010  0.03959249    -0.79300
O316        O  0.46095437  0.12946630  0.07021599    -0.79500
C317        C  0.48780506  0.12714767  0.08617245     1.01100
O318        O  0.48279175  0.17041174  0.50475280    -0.86800
O319        O  0.00910233  0.14292179  0.41683995    -0.83900
C320        C  0.01674583  0.12214763  0.38771682     0.96700
O321        O  0.51559158  0.09512857  0.40102669    -0.83900
O322        O  0.45447886  0.09103842  0.39426003    -0.86500
C323        C  0.42711722  0.08984136  0.40504506     1.01200
O324        O  0.41864229  0.09685678  0.44815709    -0.79300
O325        O  0.44176678  0.15313333  0.97434700    -0.79500
C326        C  0.45490869  0.17321480  0.49797832     1.01100
Cr327      Cr  0.00836981  0.13346178  0.98834243     1.93700
Cr328      Cr  0.48393248  0.07617208  0.44237993     1.93200
Cr329      Cr  0.44268908  0.11401087  0.00606865     1.39100
O330        O  0.47828887  0.10751429  0.48011237    -1.24500
O331        O  0.37338761  0.98843249  0.21963484    -0.86800
O332        O  0.39680640  0.45778029  0.29592008    -0.83800
C333        C  0.42433676  0.46021277  0.28417369     0.96700
O334        O  0.43791158  0.48473444  0.28877946    -0.83900
O335        O  0.44871095  0.04467356  0.30266417    -0.86500
C336        C  0.44697750  0.05765809  0.26167172     1.01200
O337        O  0.42297049  0.05792806  0.23784184    -0.79300
O338        O  0.36880694  0.03731648  0.20723022    -0.79500
C339        C  0.37112578  0.01047059  0.19127231     1.01100
O340        O  0.32785604  0.01549557  0.27269200    -0.86800
O341        O  0.35534450  0.48918820  0.36060530    -0.83900
C342        C  0.37612080  0.48154307  0.38972702     0.96700
O343        O  0.40314705  0.48269869  0.37642038    -0.83900
O344        O  0.40725675  0.04380158  0.38317862    -0.86500
C345        C  0.40844350  0.07115821  0.37239103     1.01200
O346        O  0.40142570  0.07962638  0.32927953    -0.79300
O347        O  0.34514347  0.05650503  0.30311256    -0.79500
C348        C  0.32505867  0.04337321  0.27947353     1.01100
Cr349      Cr  0.36480758  0.48991684  0.28910271     1.93700
Cr350      Cr  0.42211352  0.01434324  0.33505534     1.93200
Cr351      Cr  0.38426765  0.05558049  0.27137558     1.39100
O352        O  0.39076429  0.01998848  0.29733087    -1.24500
O353        O  0.22032932  0.35145717  0.48157180    -0.86800
O354        O  0.25098884  0.37488289  0.55784467    -0.83800
C355        C  0.27303293  0.37714045  0.58620431     0.96700
O356        O  0.29988326  0.37946166  0.57024382    -0.83900
O357        O  0.32049968  0.32530556  0.53961749    -0.86500
C358        C  0.32023015  0.30130386  0.51578408     1.01200
O359        O  0.30724588  0.29957496  0.97478683    -0.79300
O360        O  0.24730100  0.31036582  0.98869547    -0.79500
C361        C  0.22277108  0.32393113  0.49330705     1.01100
O362        O  0.25173145  0.39291768  0.91687402    -0.86800
O363        O  0.27804591  0.42040830  0.00478211    -0.83900
C364        C  0.30592864  0.42321169  0.99799812     0.96700
O365        O  0.31907032  0.40312802  0.47436924    -0.83900
O366        O  0.34219309  0.34685021  0.94817728    -0.86500
C367        C  0.33371754  0.33983358  0.90506711     1.01200
O368        O  0.30635547  0.34102984  0.89428645    -0.79300
O369        O  0.24524170  0.34512438  0.90106450    -0.79500
C370        C  0.24408717  0.37214321  0.88775274     1.01100
Cr371      Cr  0.25246662  0.38345855  0.98837778     1.93700
Cr372      Cr  0.31814758  0.36400568  0.50609288     1.93200
Cr373      Cr  0.27690242  0.32616725  0.94241344     1.39100
O374        O  0.28254741  0.35751033  0.98014224    -1.24500
O375        O  0.36403633  0.20777545  0.79592912    -0.86800
O376        O  0.38745490  0.23842936  0.71964457    -0.83800
C377        C  0.38971378  0.26046764  0.69128194     0.96700
O378        O  0.39202860  0.28731381  0.70723928    -0.83900
O379        O  0.33786391  0.30791846  0.73786169    -0.86500
C380        C  0.31385812  0.30764922  0.76169762     1.01200
O381        O  0.31212713  0.29466711  0.80269191    -0.79300
O382        O  0.32292956  0.23472961  0.78879953    -0.79500
C383        C  0.33650485  0.21020816  0.78418890     1.01100
O384        O  0.40549731  0.23918545  0.86061304    -0.86800
O385        O  0.43298377  0.26549556  0.77269499    -0.83900
C386        C  0.43577807  0.29337413  0.77947157     0.96700
O387        O  0.41569300  0.30650526  0.80311461    -0.83900
O388        O  0.35940820  0.32962036  0.82929602    -0.86500
C389        C  0.35239282  0.32115166  0.87240925     1.01200
O390        O  0.35358353  0.29379502  0.88319653    -0.79300
O391        O  0.35769562  0.23269149  0.87643144    -0.79500
C392        C  0.38472127  0.23153913  0.88973664     1.01100
Cr393      Cr  0.39603420  0.23991382  0.78911111     1.93700
Cr394      Cr  0.37656749  0.30557622  0.77138754     1.93200
Cr395      Cr  0.33872715  0.26433708  0.83507443     1.39100
O396        O  0.37007526  0.26998400  0.79734421    -1.24500
O397        O  0.25100102  0.11081750  0.80781874    -0.86800
O398        O  0.22034255  0.13423816  0.73153892    -0.83800
C399        C  0.22278056  0.16176302  0.74327904     0.96700
O400        O  0.24730874  0.17533190  0.73866791    -0.83900
O401        O  0.30725381  0.18612601  0.72477344    -0.86500
C402        C  0.32023509  0.18439776  0.76577299     1.01200
O403        O  0.32050637  0.16039581  0.78960280    -0.79300
O404        O  0.29989542  0.10623909  0.82021977    -0.79500
C405        C  0.27304448  0.10855624  0.83617944     1.01100
O406        O  0.27806102  0.06529398  0.75475443    -0.86800
O407        O  0.25175035  0.09277750  0.66684848    -0.83900
C408        C  0.24410516  0.11354945  0.63772618     0.96700
O409        O  0.24525957  0.14056979  0.65103414    -0.83900
O410        O  0.30637215  0.14466866  0.64426770    -0.86500
C411        C  0.33373331  0.14586783  0.65505191     1.01200
O412        O  0.34220747  0.13885315  0.69816278    -0.79300
O413        O  0.31908591  0.08257434  0.72434709    -0.79500
C414        C  0.30594399  0.06249317  0.74797811     1.01100
Cr415      Cr  0.25248150  0.10224037  0.73835028     1.93700
Cr416      Cr  0.27691506  0.15953104  0.69239059     1.93200
Cr417      Cr  0.31816023  0.12169634  0.75607314     1.39100
O418        O  0.28256065  0.12818956  0.73011883    -1.24500
O419        O  0.38746156  0.24727587  0.96964507    -0.86800
O420        O  0.36403553  0.27792826  0.54593079    -0.83800
C421        C  0.33650389  0.27549336  0.53419018     0.96700
O422        O  0.32293279  0.25096974  0.53879052    -0.83900
O423        O  0.31213711  0.19102905  0.55267529    -0.86500
C424        C  0.31387129  0.17804134  0.51168410     1.01200
O425        O  0.33787859  0.17777258  0.98785060    -0.79300
O426        O  0.39204131  0.19839140  0.95723420    -0.79500
C427        C  0.38972177  0.22523747  0.94127998     1.01100
O428        O  0.43299321  0.22021479  0.52269562    -0.86800
O429        O  0.40549713  0.24652145  0.61061566    -0.83900
C430        C  0.38471810  0.25416552  0.63973670     0.96700
O431        O  0.35769353  0.25301118  0.62642637    -0.83900
O432        O  0.35359070  0.19190851  0.63318548    -0.86500
C433        C  0.35240684  0.16455128  0.62239778     1.01200
O434        O  0.35942658  0.15608180  0.57928574    -0.79300
O435        O  0.41570682  0.17920583  0.55311403    -0.79500
C436        C  0.43579209  0.19233706  0.52947501     1.01100
Cr437      Cr  0.39603819  0.24579243  0.53911183     1.93700
Cr438      Cr  0.33873188  0.22136333  0.58506353     1.93200
Cr439      Cr  0.37658236  0.18012677  0.52138030     1.39100
O440        O  0.37008255  0.21571933  0.54733711    -1.24500
O441        O  0.29050384  0.13423689  0.48153907    -0.86800
O442        O  0.25984764  0.11080992  0.55781863    -0.83800
C443        C  0.23780421  0.10854904  0.58618175     0.96700
O444        O  0.21095372  0.10622666  0.57022565    -0.83900
O445        O  0.19033078  0.16038248  0.53961513    -0.86500
C446        C  0.19060023  0.18438576  0.51578748     1.01200
O447        O  0.20358365  0.18611598  0.97478826    -0.79300
O448        O  0.26353158  0.17532760  0.98867548    -0.79500
C449        C  0.28806259  0.16176243  0.49327771     1.01100
O450        O  0.25910088  0.09277604  0.91684574    -0.86800
O451        O  0.23279241  0.06528351  0.00475511    -0.83900
C452        C  0.20490986  0.06247871  0.99797730     0.96700
O453        O  0.19176660  0.08256093  0.47435147    -0.83900
O454        O  0.16863725  0.13883745  0.94817539    -0.86500
C455        C  0.17711129  0.14585457  0.90506467     1.01200
O456        O  0.20447295  0.14466026  0.89427924    -0.79300
O457        O  0.26558563  0.14057002  0.90103979    -0.79500
C458        C  0.26674307  0.11355101  0.88772602     1.01100
Cr459      Cr  0.25836817  0.10223478  0.98835018     1.93700
Cr460      Cr  0.19268613  0.12168275  0.50608223     1.93200
Cr461      Cr  0.23392689  0.15952512  0.94240081     1.39100
O462        O  0.22828547  0.12818152  0.98012601    -1.24500
O463        O  0.14679998  0.27791610  0.79596127    -0.86800
O464        O  0.12337917  0.24726544  0.71967079    -0.83800
C465        C  0.12111690  0.22522773  0.69130474     0.96700
O466        O  0.11880034  0.19838138  0.70725788    -0.83900
O467        O  0.17296376  0.17776712  0.73786649    -0.86500
C468        C  0.19697141  0.17803698  0.76169613     1.01200
O469        O  0.19870421  0.19101964  0.80269114    -0.79300
O470        O  0.18790549  0.25096060  0.78881745    -0.79500
C471        C  0.17433070  0.27548320  0.78421643     1.01100
O472        O  0.10533856  0.24650628  0.86064127    -0.86800
O473        O  0.07784891  0.22020317  0.77272213    -0.83900
C474        C  0.07505249  0.19232498  0.77949398     0.96700
O475        O  0.09513586  0.17919250  0.80313467    -0.83900
O476        O  0.15141823  0.15606873  0.82930090    -0.86500
C477        C  0.15843547  0.16453672  0.87241384     1.01200
O478        O  0.15724777  0.19189318  0.88320473    -0.79300
O479        O  0.15314117  0.25299517  0.87645482    -0.79500
C480        C  0.12611559  0.25414998  0.88976297     1.01100
Cr481      Cr  0.11480065  0.24578008  0.78913863     1.93700
Cr482      Cr  0.13426065  0.18011580  0.77140003     1.93200
Cr483      Cr  0.17210665  0.22135077  0.83508663     1.39100
O484        O  0.14075760  0.21570747  0.79736043    -1.24500
O485        O  0.25983136  0.37487308  0.80784363    -0.86800
O486        O  0.29048927  0.35144952  0.73155756    -0.83800
C487        C  0.28804955  0.32392427  0.74329137     0.96700
O488        O  0.26352130  0.31035663  0.73868104    -0.83900
O489        O  0.20357751  0.29956602  0.72479664    -0.86500
C490        C  0.19059959  0.30129408  0.76580022     1.01200
O491        O  0.19032821  0.32529692  0.78963257    -0.79300
O492        O  0.21093752  0.37945775  0.82024714    -0.79500
C493        C  0.23778755  0.37713771  0.83620606     1.01100
O494        O  0.23277456  0.42039606  0.75477816    -0.86800
O495        O  0.25908696  0.39291087  0.66687470    -0.83900
C496        C  0.26673124  0.37213897  0.63774865     0.96700
O497        O  0.26557307  0.34511832  0.65105143    -0.83900
O498        O  0.20445926  0.34102353  0.64429436    -0.86500
C499        C  0.17709822  0.33982333  0.65508294     1.01200
O500        O  0.16862526  0.34683607  0.69819675    -0.79300
O501        O  0.19175015  0.40311476  0.72437062    -0.79500
C502        C  0.20489289  0.42319893  0.74799435     1.01100
Cr503      Cr  0.25835296  0.38344866  0.73837495     1.93700
Cr504      Cr  0.23391633  0.32615924  0.69241055     1.93200
Cr505      Cr  0.19267368  0.36399563  0.75610240     1.39100
O506        O  0.22827291  0.35750067  0.73014392    -1.21300
O507        O  0.12337356  0.23841514  0.96966962    -0.86800
O508        O  0.14679613  0.20776300  0.54595026    -0.83800
C509        C  0.17432745  0.21019659  0.53420504     0.96700
O510        O  0.18789963  0.23472018  0.53880807    -0.83900
O511        O  0.19869672  0.29466247  0.55270219    -0.86500
C512        C  0.19696274  0.30765180  0.51171341     1.01200
O513        O  0.17295667  0.30791940  0.98788179    -0.79300
O514        O  0.11879798  0.28729985  0.95726140    -0.79500
C515        C  0.12111566  0.26045311  0.94130640     1.01100
O516        O  0.07783978  0.26547873  0.52271742    -0.86800
O517        O  0.10533339  0.23917351  0.61064091    -0.83900
C518        C  0.12611209  0.23152928  0.63975949     0.96700
O519        O  0.15313666  0.23268117  0.62644565    -0.83900
O520        O  0.15724103  0.29378300  0.63321277    -0.86500
C521        C  0.15842447  0.32114033  0.62242852     1.01200
O522        O  0.15140415  0.32961030  0.57931901    -0.79300
O523        O  0.09512389  0.30648930  0.55313510    -0.79500
C524        C  0.07504209  0.29335792  0.52948869     1.01100
Cr525      Cr  0.11479415  0.23990049  0.53913580     1.93700
Cr526      Cr  0.17210024  0.26432804  0.58508615     1.93200
Cr527      Cr  0.13425179  0.30556575  0.52140897     1.39100
O528        O  0.14075013  0.26997321  0.54736265    -1.24500
O529        O  0.47034564  0.10145945  0.73152726    -0.86800
O530        O  0.00100263  0.12488178  0.80781043    -0.83800
C531        C  0.02304609  0.12714292  0.83617145     0.96700
O532        O  0.04989686  0.12945971  0.82021305    -0.83900
O533        O  0.07050623  0.07530269  0.78958832    -0.86500
C534        C  0.07023557  0.05130084  0.76575520     1.01200
O535        O  0.05725894  0.04957421  0.72475175    -0.79300
O536        O  0.49731482  0.06036636  0.73864719    -0.79500
C537        C  0.47278575  0.07393407  0.74326048     1.01100
O538        O  0.00174986  0.14292168  0.66684129    -0.86800
O539        O  0.02805887  0.17040571  0.75475251    -0.83900
C540        C  0.05594264  0.17320692  0.74798491     0.96700
O541        O  0.06908801  0.15312734  0.72435088    -0.83900
O542        O  0.09221022  0.09684606  0.69815258    -0.86500
C543        C  0.08373618  0.08983205  0.65504042     1.01200
O544        O  0.05637543  0.09103521  0.64425530    -0.79300
O545        O  0.99526233  0.09512928  0.65102162    -0.79500
C546        C  0.99410614  0.12214919  0.63771649     1.01100
Cr547      Cr  0.00248213  0.13345868  0.73834261     1.93700
Cr548      Cr  0.06816201  0.11400308  0.75606549     1.93200
Cr549      Cr  0.02691951  0.07616958  0.69237373     1.39100
O550        O  0.03256297  0.10751062  0.73010785    -1.24500
O551        O  0.11403647  0.45776403  0.54590776    -0.86800
O552        O  0.13745867  0.98841634  0.96962597    -0.83800
C553        C  0.13971843  0.01045487  0.94126422     0.96700
O554        O  0.14204382  0.03730007  0.95722248    -0.83900
O555        O  0.08788273  0.05792359  0.98783782    -0.86500
C556        C  0.06387481  0.05765455  0.51166702     1.01200
O557        O  0.06213796  0.04466491  0.55265603    -0.79300
O558        O  0.07293411  0.48472325  0.53876596    -0.79500
C559        C  0.08650604  0.46019912  0.53416225     1.01100
O560        O  0.15549835  0.48916981  0.61059569    -0.86800
O561        O  0.18299379  0.01547635  0.52267709    -0.83900
C562        C  0.18579351  0.04335345  0.52946679     0.96700
O563        O  0.16570785  0.05648322  0.55310924    -0.83900
O564        O  0.10942927  0.07961248  0.57927575    -0.86500
C565        C  0.10240724  0.07114432  0.62238582     1.01200
O566        O  0.10358716  0.04378673  0.63317088    -0.79300
O567        O  0.10769427  0.98268358  0.62640688    -0.79500
C568        C  0.13471911  0.48152822  0.63971737     1.01100
Cr569      Cr  0.14603860  0.48989931  0.53909166     1.93700
Cr570      Cr  0.12658498  0.05556588  0.52137006     1.93200
Cr571      Cr  0.08873163  0.01433058  0.58504430     1.39100
O572        O  0.12008324  0.01997364  0.54732139    -1.24500
O573        O  0.00099111  0.36080779  0.55779920    -0.86800
O574        O  0.47033454  0.38423532  0.48152357    -0.83800
C575        C  0.47277536  0.41176124  0.49325863     0.96700
O576        O  0.49730615  0.42532604  0.98865236    -0.83900
O577        O  0.05725199  0.43611565  0.97474944    -0.86500
C578        C  0.07023342  0.43438863  0.51574858     1.01200
O579        O  0.07050165  0.41038744  0.53958093    -0.79300
O580        O  0.04988592  0.35623372  0.57020506    -0.79500
C581        C  0.02303429  0.35854990  0.58616103     1.01100
O582        O  0.02804783  0.31528200  0.00473911    -0.86800
O583        O  0.00173899  0.34277288  0.91682573    -0.83900
C584        C  0.99409402  0.36354764  0.88770773     0.96700
O585        O  0.99524915  0.39056631  0.90102213    -0.83900
O586        O  0.05636129  0.39465426  0.89424980    -0.86500
C587        C  0.08372259  0.39585410  0.90503155     1.01200
O588        O  0.09219885  0.38883748  0.94814107    -0.79300
O589        O  0.06907922  0.33255711  0.47434677    -0.79500
C590        C  0.05593244  0.31247840  0.99797817     1.01100
Cr591      Cr  0.00247142  0.35223260  0.98833098     1.93700
Cr592      Cr  0.02690896  0.40952186  0.94237377     1.93200
Cr593      Cr  0.06815242  0.37168503  0.50605762     1.39100
O594        O  0.03255297  0.37817929  0.98010148    -1.24500
O595        O  0.13745139  0.49726697  0.71962747    -0.86800
O596        O  0.11403254  0.02792110  0.79591784    -0.83800
C597        C  0.08650246  0.02548926  0.78417169     0.96700
O598        O  0.07292681  0.00096810  0.78877609    -0.83900
O599        O  0.06212644  0.44102815  0.80265066    -0.86500
C600        C  0.06386215  0.42804087  0.76165873     1.01200
O601        O  0.08787059  0.42776904  0.73782889    -0.79300
O602        O  0.14203650  0.44838302  0.70722144    -0.79500
C603        C  0.13971529  0.47522813  0.69126360     1.01100
O604        O  0.18298102  0.47020240  0.77268210    -0.86800
O605        O  0.15549208  0.49651060  0.86059493    -0.83900
C606        C  0.13471563  0.50415426  0.88972046     0.96700
O607        O  0.10768947  0.50300089  0.87641609    -0.83900
O608        O  0.10357565  0.44189808  0.88316801    -0.86500
C609        C  0.10239261  0.41454096  0.87237762     1.01200
O610        O  0.10941059  0.40607373  0.82926435    -0.79300
O611        O  0.16568955  0.42919985  0.80311537    -0.79500
C612        C  0.18577744  0.44232639  0.77947679     1.01100
Cr613      Cr  0.14603013  0.49578319  0.78909449     1.93700
Cr614      Cr  0.08872226  0.47135782  0.83504749     1.93200
Cr615      Cr  0.12657106  0.43011986  0.77136583     1.39100
O616        O  0.12007209  0.46571238  0.79732119    -1.24500
O617        O  0.04049270  0.38423849  0.73151514    -0.86800
O618        O  0.50983497  0.36081557  0.80779787    -0.83800
C619        C  0.48779176  0.35855451  0.83616184     0.96700
O620        O  0.46094049  0.35624175  0.82020645    -0.83900
O621        O  0.44033585  0.41040105  0.78958899    -0.86500
C622        C  0.44060527  0.43440164  0.76575588     1.01200
O623        O  0.45358120  0.43612692  0.72475044    -0.79300
O624        O  0.01352523  0.42533336  0.73863926    -0.79500
C625        C  0.03805363  0.41176507  0.74324875     1.01100
O626        O  0.00908548  0.34277769  0.66682697    -0.86800
O627        O  0.48277406  0.31529443  0.75473584    -0.83900
C628        C  0.45489012  0.31249479  0.74796982     0.96700
O629        O  0.44174593  0.33257619  0.72434248    -0.83900
O630        O  0.41862932  0.38885833  0.69815307    -0.86500
C631        C  0.42710371  0.39586899  0.65503945     1.01200
O632        O  0.45446453  0.39466414  0.64425158    -0.79300
O633        O  0.51557742  0.39056933  0.65101275    -0.79500
C634        C  0.01673168  0.36354936  0.63770476     1.01100
Cr635      Cr  0.00835422  0.35224020  0.73832908     1.93700
Cr636      Cr  0.44267621  0.37170025  0.75606214     1.93200
Cr637      Cr  0.48392031  0.40953026  0.69236834     1.39100
O638        O  0.47827546  0.37819021  0.73010111    -1.24500
O639        O  0.39680225  0.02793217  0.54591581    -0.86800
O640        O  0.37337790  0.49727902  0.96963567    -0.83800
C641        C  0.37111914  0.47524061  0.94127111     0.96700
O642        O  0.36879756  0.44839477  0.95722663    -0.83900
O643        O  0.42295982  0.42777329  0.98783599    -0.86500
C644        C  0.44696744  0.42804221  0.51166623     1.01200
O645        O  0.44870272  0.44103239  0.55265442    -0.79300
O646        O  0.43790575  0.00097378  0.53876821    -0.79500
C647        C  0.42433354  0.02549746  0.53416910     1.01100
O648        O  0.35534237  0.49652487  0.61060798    -0.86800
O649        O  0.32784593  0.47021608  0.52269193    -0.83900
C650        C  0.32504731  0.44233903  0.52948055     0.96700
O651        O  0.34513464  0.42921037  0.55311647    -0.83900
O652        O  0.40141346  0.40608556  0.57927515    -0.86500
C653        C  0.40843348  0.41455510  0.62238577     1.01200
O654        O  0.40725262  0.44191289  0.63317237    -0.79300
O655        O  0.40314595  0.50301558  0.62641099    -0.79500
C656        C  0.37612157  0.50416890  0.63972615     1.01100
Cr657      Cr  0.36480059  0.49579550  0.53910269     1.93700
Cr658      Cr  0.38425721  0.43013004  0.52137191     1.93200
Cr659      Cr  0.42210860  0.47136750  0.58504592     1.39100
O660        O  0.39075748  0.46572278  0.54732528    -1.24500
O661        O  0.50984897  0.12488689  0.55780966    -0.86800
O662        O  0.04050716  0.10145983  0.48152817    -0.83800
C663        C  0.03806585  0.07393320  0.49326139     0.96700
O664        O  0.01353633  0.06036849  0.98865303    -0.83900
O665        O  0.45358964  0.04957973  0.97475859    -0.86500
C666        C  0.44060630  0.05130842  0.51575857     1.01200
O667        O  0.44033717  0.07531005  0.53959271    -0.79300
O668        O  0.46095435  0.12946630  0.57021603    -0.79500
C669        C  0.48780509  0.12714768  0.58617249     1.01100
O670        O  0.48279175  0.17041180  0.00475260    -0.86800
O671        O  0.00910228  0.14292176  0.91683981    -0.83900
C672        C  0.01674573  0.12214751  0.88771682     0.96700
O673        O  0.51559163  0.09512857  0.90102653    -0.83900
O674        O  0.45447884  0.09103842  0.89426007    -0.86500
C675        C  0.42711718  0.08984138  0.90504522     1.01200
O676        O  0.41864230  0.09685683  0.94815701    -0.79300
O677        O  0.44176670  0.15313339  0.47434722    -0.79500
C678        C  0.45490876  0.17321476  0.99797823     1.01100
Cr679      Cr  0.00836983  0.13346172  0.48834252     1.93700
Cr680      Cr  0.48393244  0.07617208  0.94237993     1.93200
Cr681      Cr  0.44268900  0.11401081  0.50606878     1.39100
O682        O  0.47828895  0.10751435  0.98011226    -1.24500
O683        O  0.37338751  0.98843251  0.71963495    -0.86800
O684        O  0.39680635  0.45778025  0.79592006    -0.83800
C685        C  0.42433683  0.46021298  0.78417360     0.96700
O686        O  0.43791149  0.48473442  0.78877929    -0.83900
O687        O  0.44871106  0.04467361  0.80266402    -0.86500
C688        C  0.44697769  0.05765804  0.76167217     1.01200
O689        O  0.42297045  0.05792804  0.73784181    -0.79300
O690        O  0.36880701  0.03731653  0.70723020    -0.79500
C691        C  0.37112574  0.01047058  0.69127233     1.01100
O692        O  0.32785595  0.01549558  0.77269205    -0.86800
O693        O  0.35534451  0.48918833  0.86060542    -0.83900
C694        C  0.37612094  0.48154307  0.88972716     0.96700
O695        O  0.40314706  0.48269857  0.87642042    -0.83900
O696        O  0.40725688  0.04380147  0.88317858    -0.86500
C697        C  0.40844357  0.07115822  0.87239091     1.01200
O698        O  0.40142573  0.07962637  0.82927957    -0.79300
O699        O  0.34514342  0.05650504  0.80311268    -0.79500
C700        C  0.32505870  0.04337335  0.77947356     1.01100
Cr701      Cr  0.36480752  0.48991683  0.78910280     1.93700
Cr702      Cr  0.42211355  0.01434319  0.83505534     1.93200
Cr703      Cr  0.38426765  0.05558055  0.77137565     1.39100
O704        O  0.39076421  0.01998853  0.79733103    -1.24500
O705        O  0.22032925  0.85145708  0.98157168    -0.86800
O706        O  0.25098877  0.87488288  0.05784463    -0.83800
C707        C  0.27303284  0.87714048  0.08620446     0.96700
O708        O  0.29988319  0.87946172  0.07024379    -0.83900
O709        O  0.32049949  0.82530556  0.03961772    -0.86500
C710        C  0.32022997  0.80130376  0.01578352     1.01200
O711        O  0.30724579  0.79957487  0.47478690    -0.79300
O712        O  0.24730097  0.81036587  0.48869552    -0.79500
C713        C  0.22277103  0.82393123  0.99330714     1.01100
O714        O  0.25173147  0.89291763  0.41687404    -0.86800
O715        O  0.27804597  0.92040829  0.50478210    -0.83900
C716        C  0.30592850  0.92321169  0.49799819     0.96700
O717        O  0.31907032  0.90312805  0.97436932    -0.83900
O718        O  0.34219303  0.84685016  0.44817715    -0.86500
C719        C  0.33371750  0.83983351  0.40506725     1.01200
O720        O  0.30635533  0.84102965  0.39428649    -0.79300
O721        O  0.24524167  0.84512436  0.40106468    -0.79500
C722        C  0.24408710  0.87214320  0.38775296     1.01100
Cr723      Cr  0.25246664  0.88345851  0.48837779     1.93700
Cr724      Cr  0.31814746  0.86400570  0.00609299     1.93200
Cr725      Cr  0.27690241  0.82616716  0.44241356     1.39100
O726        O  0.28254740  0.85751025  0.48014224    -1.24500
O727        O  0.36403628  0.70777551  0.29592920    -0.86800
O728        O  0.38745477  0.73842940  0.21964452    -0.83800
C729        C  0.38971378  0.76046757  0.19128179     0.96700
O730        O  0.39202865  0.78731384  0.20723921    -0.83900
O731        O  0.33786385  0.80791853  0.23786181    -0.86500
C732        C  0.31385846  0.80764936  0.26169704     1.01200
O733        O  0.31212722  0.79466713  0.30269208    -0.79300
O734        O  0.32292948  0.73472958  0.28879955    -0.79500
C735        C  0.33650474  0.71020826  0.28418896     1.01100
O736        O  0.40549728  0.73918551  0.36061303    -0.86800
O737        O  0.43298374  0.76549553  0.27269512    -0.83900
C738        C  0.43577814  0.79337402  0.27947156     0.96700
O739        O  0.41569296  0.80650533  0.30311458    -0.83900
O740        O  0.35940812  0.82962048  0.32929613    -0.86500
C741        C  0.35239277  0.82115180  0.37240917     1.01200
O742        O  0.35358363  0.79379506  0.38319657    -0.79300
O743        O  0.35769560  0.73269148  0.37643154    -0.79500
C744        C  0.38472138  0.73153917  0.38973669     1.01100
Cr745      Cr  0.39603418  0.73991378  0.28911106     1.93700
Cr746      Cr  0.37656750  0.80557627  0.27138757     1.93200
Cr747      Cr  0.33872721  0.76433710  0.33507451     1.39100
O748        O  0.37007531  0.76998400  0.29734430    -1.24500
O749        O  0.25100102  0.61081747  0.30781883    -0.86800
O750        O  0.22034252  0.63423821  0.23153904    -0.83800
C751        C  0.22278046  0.66176283  0.24327916     0.96700
O752        O  0.24730880  0.67533189  0.23866810    -0.83900
O753        O  0.30725378  0.68612600  0.22477353    -0.86500
C754        C  0.32023516  0.68439762  0.26577312     1.01200
O755        O  0.32050644  0.66039575  0.28960280    -0.79300
O756        O  0.29989543  0.60623893  0.32021994    -0.79500
C757        C  0.27304452  0.60855624  0.33617946     1.01100
O758        O  0.27806091  0.56529403  0.25475453    -0.86800
O759        O  0.25175034  0.59277750  0.16684860    -0.83900
C760        C  0.24410528  0.61354942  0.13772623     0.96700
O761        O  0.24525949  0.64056977  0.15103431    -0.83900
O762        O  0.30637206  0.64466866  0.14426778    -0.86500
C763        C  0.33373331  0.64586776  0.15505191     1.01200
O764        O  0.34220742  0.63885307  0.19816275    -0.79300
O765        O  0.31908592  0.58257416  0.22434716    -0.79500
C766        C  0.30594395  0.56249308  0.24797797     1.01100
Cr767      Cr  0.25248144  0.60224040  0.23835041     1.93700
Cr768      Cr  0.27691501  0.65953105  0.19239071     1.93200
Cr769      Cr  0.31816025  0.62169624  0.25607319     1.39100
O770        O  0.28256060  0.62818959  0.23011904    -1.24500
O771        O  0.38746152  0.74727588  0.46964516    -0.86800
O772        O  0.36403549  0.77792817  0.04593064    -0.83800
C773        C  0.33650426  0.77549342  0.03419023     0.96700
O774        O  0.32293282  0.75096960  0.03879045    -0.83900
O775        O  0.31213718  0.69102902  0.05267535    -0.86500
C776        C  0.31387144  0.67804131  0.01168370     1.01200
O777        O  0.33787875  0.67777258  0.48785074    -0.79300
O778        O  0.39204134  0.69839143  0.45723431    -0.79500
C779        C  0.38972178  0.72523745  0.44128009     1.01100
O780        O  0.43299320  0.72021466  0.02269561    -0.86800
O781        O  0.40549718  0.74652141  0.11061557    -0.83900
C782        C  0.38471810  0.75416542  0.13973678     0.96700
O783        O  0.35769355  0.75301097  0.12642631    -0.83900
O784        O  0.35359075  0.69190835  0.13318531    -0.86500
C785        C  0.35240686  0.66455107  0.12239750     1.01200
O786        O  0.35942654  0.65608165  0.07928556    -0.79300
O787        O  0.41570686  0.67920564  0.05311391    -0.79500
C788        C  0.43579217  0.69233690  0.02947500     1.01100
Cr789      Cr  0.39603821  0.74579231  0.03911176     1.93700
Cr790      Cr  0.33873195  0.72136319  0.08506344     1.93200
Cr791      Cr  0.37658239  0.68012666  0.02138008     1.39100
O792        O  0.37008258  0.71571918  0.04733699    -1.24500
O793        O  0.29050393  0.63423697  0.98153885    -0.86800
O794        O  0.25984766  0.61080997  0.05781846    -0.83800
C795        C  0.23780424  0.60854899  0.08618176     0.96700
O796        O  0.21095379  0.60622673  0.07022568    -0.83900
O797        O  0.19033093  0.66038259  0.03961512    -0.86500
C798        C  0.19060027  0.68438574  0.01578742     1.01200
O799        O  0.20358375  0.68611593  0.47478841    -0.79300
O800        O  0.26353154  0.67532751  0.48867572    -0.79500
C801        C  0.28806248  0.66176270  0.99327771     1.01100
O802        O  0.25910089  0.59277589  0.41684567    -0.86800
O803        O  0.23279241  0.56528343  0.50475532    -0.83900
C804        C  0.20490980  0.56247869  0.49797724     0.96700
O805        O  0.19176661  0.58256097  0.97435151    -0.83900
O806        O  0.16863722  0.63883726  0.44817524    -0.86500
C807        C  0.17711123  0.64585452  0.40506482     1.01200
O808        O  0.20447295  0.64466017  0.39427918    -0.79300
O809        O  0.26558559  0.64056992  0.40104004    -0.79500
C810        C  0.26674297  0.61355084  0.38772608     1.01100
Cr811      Cr  0.25836819  0.60223463  0.48835025     1.93700
Cr812      Cr  0.19268619  0.62168284  0.00608221     1.93200
Cr813      Cr  0.23392690  0.65952502  0.44240090     1.39100
O814        O  0.22828546  0.62818143  0.48012616    -1.24500
O815        O  0.14679988  0.77791607  0.29596127    -0.86800
O816        O  0.12337920  0.74726541  0.21967080    -0.83800
C817        C  0.12111683  0.72522756  0.19130470     0.96700
O818        O  0.11880031  0.69838133  0.20725789    -0.83900
O819        O  0.17296377  0.67776722  0.23786648    -0.86500
C820        C  0.19697151  0.67803705  0.26169651     1.01200
O821        O  0.19870418  0.69101968  0.30269116    -0.79300
O822        O  0.18790548  0.75096064  0.28881764    -0.79500
C823        C  0.17433099  0.77548299  0.28421632     1.01100
O824        O  0.10533853  0.74650624  0.36064143    -0.86800
O825        O  0.07784887  0.72020317  0.27272214    -0.83900
C826        C  0.07505259  0.69232479  0.27949398     0.96700
O827        O  0.09513588  0.67919239  0.30313450    -0.83900
O828        O  0.15141838  0.65606869  0.32930098    -0.86500
C829        C  0.15843545  0.66453663  0.37241380     1.01200
O830        O  0.15724766  0.69189322  0.38320477    -0.79300
O831        O  0.15314114  0.75299528  0.37645488    -0.79500
C832        C  0.12611557  0.75414993  0.38976312     1.01100
Cr833      Cr  0.11480065  0.74578005  0.28913865     1.93700
Cr834      Cr  0.13426073  0.68011573  0.27140008     1.93200
Cr835      Cr  0.17210664  0.72135082  0.33508679     1.39100
O836        O  0.14075757  0.71570744  0.29736060    -1.24500
O837        O  0.25983139  0.87487315  0.30784381    -0.86800
O838        O  0.29048940  0.85144967  0.23155769    -0.83800
C839        C  0.28804928  0.82392398  0.24329148     0.96700
O840        O  0.26352137  0.81035683  0.23868117    -0.83900
O841        O  0.20357758  0.79956595  0.22479656    -0.86500
C842        C  0.19059946  0.80129417  0.26580069     1.01200
O843        O  0.19032829  0.82529678  0.28963257    -0.79300
O844        O  0.21093755  0.87945771  0.32024709    -0.79500
C845        C  0.23778749  0.87713772  0.33620604     1.01100
O846        O  0.23277459  0.92039604  0.25477822    -0.86800
O847        O  0.25908697  0.89291091  0.16687486    -0.83900
C848        C  0.26673129  0.87213897  0.13774859     0.96700
O849        O  0.26557309  0.84511835  0.15105150    -0.83900
O850        O  0.20445934  0.84102357  0.14429433    -0.86500
C851        C  0.17709836  0.83982327  0.15508284     1.01200
O852        O  0.16862536  0.84683609  0.19819672    -0.79300
O853        O  0.19175022  0.90311469  0.22437069    -0.79500
C854        C  0.20489294  0.92319888  0.24799452     1.01100
Cr855      Cr  0.25835299  0.88344866  0.23837504     1.93700
Cr856      Cr  0.23391635  0.82615925  0.19241056     1.93200
Cr857      Cr  0.19267377  0.86399557  0.25610234     1.39100
O858        O  0.22827299  0.85750066  0.23014387    -1.21300
O859        O  0.12337347  0.73841518  0.46966968    -0.86800
O860        O  0.14679616  0.70776296  0.04595039    -0.83800
C861        C  0.17432744  0.71019669  0.03420486     0.96700
O862        O  0.18789963  0.73472017  0.03880823    -0.83900
O863        O  0.19869669  0.79466238  0.05270228    -0.86500
C864        C  0.19696273  0.80765164  0.01171373     1.01200
O865        O  0.17295680  0.80791945  0.48788164    -0.79300
O866        O  0.11879799  0.78729989  0.45726128    -0.79500
C867        C  0.12111564  0.76045307  0.44130646     1.01100
O868        O  0.07783980  0.76547867  0.02271750    -0.86800
O869        O  0.10533335  0.73917350  0.11064101    -0.83900
C870        C  0.12611212  0.73152923  0.13975959     0.96700
O871        O  0.15313662  0.73268104  0.12644577    -0.83900
O872        O  0.15724091  0.79378295  0.13321294    -0.86500
C873        C  0.15842447  0.82114027  0.12242870     1.01200
O874        O  0.15140416  0.82961019  0.07931899    -0.79300
O875        O  0.09512394  0.80648926  0.05313510    -0.79500
C876        C  0.07504209  0.79335791  0.02948883     1.01100
Cr877      Cr  0.11479417  0.73990042  0.03913586     1.93700
Cr878      Cr  0.17210019  0.76432801  0.08508640     1.93200
Cr879      Cr  0.13425183  0.80556568  0.02140906     1.39100
O880        O  0.14075008  0.76997315  0.04736290    -1.24500
O881        O  0.47034561  0.60145944  0.23152726    -0.86800
O882        O  0.00100270  0.62488171  0.30781046    -0.83800
C883        C  0.02304612  0.62714289  0.33617160     0.96700
O884        O  0.04989695  0.62945962  0.32021309    -0.83900
O885        O  0.07050628  0.57530270  0.28958813    -0.86500
C886        C  0.07023557  0.55130081  0.26575523     1.01200
O887        O  0.05725885  0.54957419  0.22475166    -0.79300
O888        O  0.49731472  0.56036637  0.23864735    -0.79500
C889        C  0.47278588  0.57393374  0.24326071     1.01100
O890        O  0.00174986  0.64292160  0.16684131    -0.86800
O891        O  0.02805896  0.67040566  0.25475260    -0.83900
C892        C  0.05594258  0.67320688  0.24798508     0.96700
O893        O  0.06908806  0.65312725  0.22435085    -0.83900
O894        O  0.09221016  0.59684594  0.19815249    -0.86500
C895        C  0.08373614  0.58983191  0.15504041     1.01200
O896        O  0.05637532  0.59103502  0.14425530    -0.79300
O897        O  0.99526222  0.59512922  0.15102162    -0.79500
C898        C  0.99410605  0.62214920  0.13771654     1.01100
Cr899      Cr  0.00248211  0.63345864  0.23834271     1.93700
Cr900      Cr  0.06816203  0.61400302  0.25606540     1.93200
Cr901      Cr  0.02691943  0.57616957  0.19237382     1.39100
O902        O  0.03256292  0.60751060  0.23010793    -1.24500
O903        O  0.11403644  0.95776399  0.04590787    -0.86800
O904        O  0.13745878  0.48841626  0.46962586    -0.83800
C905        C  0.13971845  0.51045475  0.44126414     0.96700
O906        O  0.14204373  0.53730002  0.45722255    -0.83900
O907        O  0.08788278  0.55792361  0.48783786    -0.86500
C908        C  0.06387457  0.55765435  0.01166738     1.01200
O909        O  0.06213803  0.54466482  0.05265581    -0.79300
O910        O  0.07293405  0.98472312  0.03876585    -0.79500
C911        C  0.08650580  0.96019932  0.03416213     1.01100
O912        O  0.15549829  0.98916982  0.11059573    -0.86800
O913        O  0.18299386  0.51547645  0.02267699    -0.83900
C914        C  0.18579368  0.54335344  0.02946674     0.96700
O915        O  0.16570788  0.55648335  0.05310905    -0.83900
O916        O  0.10942926  0.57961248  0.07927563    -0.86500
C917        C  0.10240725  0.57114431  0.12238563     1.01200
O918        O  0.10358718  0.54378674  0.13317076    -0.79300
O919        O  0.10769433  0.48268351  0.12640680    -0.79500
C920        C  0.13471922  0.98152825  0.13971721     1.01100
Cr921      Cr  0.14603853  0.98989932  0.03909170     1.93700
Cr922      Cr  0.12658498  0.55556587  0.02136987     1.93200
Cr923      Cr  0.08873168  0.51433054  0.08504420     1.39100
O924        O  0.12008326  0.51997361  0.04732120    -1.24500
O925        O  0.00099111  0.86080787  0.05779913    -0.86800
O926        O  0.47033460  0.88423532  0.98152352    -0.83800
C927        C  0.47277547  0.91176137  0.99325852     0.96700
O928        O  0.49730619  0.92532606  0.48865220    -0.83900
O929        O  0.05725204  0.93611573  0.47474934    -0.86500
C930        C  0.07023348  0.93438835  0.01574895     1.01200
O931        O  0.07050172  0.91038746  0.03958088    -0.79300
O932        O  0.04988592  0.85623378  0.07020492    -0.79500
C933        C  0.02303426  0.85855004  0.08616103     1.01100
O934        O  0.02804776  0.81528197  0.50473918    -0.86800
O935        O  0.00173886  0.84277294  0.41682579    -0.83900
C936        C  0.99409393  0.86354765  0.38770762     0.96700
O937        O  0.99524910  0.89056638  0.40102200    -0.83900
O938        O  0.05636131  0.89465427  0.39424964    -0.86500
C939        C  0.08372259  0.89585411  0.40503161     1.01200
O940        O  0.09219872  0.88883755  0.44814113    -0.79300
O941        O  0.06907918  0.83255711  0.97434662    -0.79500
C942        C  0.05593270  0.81247864  0.49797804     1.01100
Cr943      Cr  0.00247138  0.85223264  0.48833100     1.93700
Cr944      Cr  0.02690894  0.90952192  0.44237363     1.93200
Cr945      Cr  0.06815244  0.87168500  0.00605752     1.39100
O946        O  0.03255288  0.87817942  0.48010160    -1.24500
O947        O  0.13745145  0.99726705  0.21962732    -0.86800
O948        O  0.11403257  0.52792112  0.29591784    -0.83800
C949        C  0.08650243  0.52548925  0.28417160     0.96700
O950        O  0.07292692  0.50096808  0.28877597    -0.83900
O951        O  0.06212647  0.94102818  0.30265063    -0.86500
C952        C  0.06386223  0.92804085  0.26165870     1.01200
O953        O  0.08787068  0.92776901  0.23782891    -0.79300
O954        O  0.14203662  0.94838310  0.20722140    -0.79500
C955        C  0.13971526  0.97522832  0.19126367     1.01100
O956        O  0.18298105  0.97020246  0.27268204    -0.86800
O957        O  0.15549214  0.99651064  0.36059501    -0.83900
C958        C  0.13471578  0.00415425  0.38972044     0.96700
O959        O  0.10768950  0.00300091  0.37641596    -0.83900
O960        O  0.10357561  0.94189814  0.38316799    -0.86500
C961        C  0.10239270  0.91454098  0.37237754     1.01200
O962        O  0.10941062  0.90607382  0.32926430    -0.79300
O963        O  0.16568955  0.92920001  0.30311547    -0.79500
C964        C  0.18577741  0.94232641  0.27947687     1.01100
Cr965      Cr  0.14603018  0.99578321  0.28909449     1.93700
Cr966      Cr  0.08872229  0.97135784  0.33504740     1.93200
Cr967      Cr  0.12657115  0.93011991  0.27136574     1.39100
O968        O  0.12007210  0.96571239  0.29732104    -1.24500
O969        O  0.04049273  0.88423846  0.23151505    -0.86800
O970        O  0.50983501  0.86081551  0.30779789    -0.83800
C971        C  0.48779193  0.85855447  0.33616189     0.96700
O972        O  0.46094051  0.85624168  0.32020635    -0.83900
O973        O  0.44033585  0.91040096  0.28958894    -0.86500
C974        C  0.44060533  0.93440179  0.26575569     1.01200
O975        O  0.45358131  0.93612691  0.22475048    -0.79300
O976        O  0.01352526  0.92533328  0.23863933    -0.79500
C977        C  0.03805367  0.91176505  0.24324874     1.01100
O978        O  0.00908552  0.84277764  0.16682686    -0.86800
O979        O  0.48277416  0.81529444  0.25473581    -0.83900
C980        C  0.45489009  0.81249475  0.24796970     0.96700
O981        O  0.44174593  0.83257603  0.22434253    -0.83900
O982        O  0.41862935  0.88885819  0.19815308    -0.86500
C983        C  0.42710376  0.89586903  0.15503952     1.01200
O984        O  0.45446456  0.89466421  0.14425159    -0.79300
O985        O  0.51557745  0.89056930  0.15101279    -0.79500
C986        C  0.01673168  0.86354935  0.13770458     1.01100
Cr987      Cr  0.00835420  0.85224020  0.23832903     1.93700
Cr988      Cr  0.44267622  0.87170016  0.25606216     1.93200
Cr989      Cr  0.48392034  0.90953021  0.19236831     1.39100
O990        O  0.47827544  0.87819014  0.23010106    -1.24500
O991        O  0.39680217  0.52793223  0.04591565    -0.86800
O992        O  0.37337804  0.99727900  0.46963565    -0.83800
C993        C  0.37111912  0.97524063  0.44127118     0.96700
O994        O  0.36879741  0.94839480  0.45722658    -0.83900
O995        O  0.42295978  0.92777337  0.48783582    -0.86500
C996        C  0.44696751  0.92804215  0.01166601     1.01200
O997        O  0.44870277  0.94103241  0.05265443    -0.79300
O998        O  0.43790574  0.50097397  0.03876810    -0.79500
C999        C  0.42433373  0.52549739  0.03416896     1.01100
O1000       O  0.35534240  0.99652487  0.11060781    -0.86800
O1001       O  0.32784595  0.97021611  0.02269175    -0.83900
C1002       C  0.32504726  0.94233907  0.02948056     0.96700
O1003       O  0.34513458  0.92921042  0.05311652    -0.83900
O1004       O  0.40141347  0.90608554  0.07927524    -0.86500
C1005       C  0.40843360  0.91455512  0.12238585     1.01200
O1006       O  0.40725271  0.94191299  0.13317225    -0.79300
O1007       O  0.40314598  0.00301560  0.12641104    -0.79500
C1008       C  0.37612147  0.00416899  0.13972605     1.01100
Cr1009     Cr  0.36480061  0.99579556  0.03910255     1.93700
Cr1010     Cr  0.38425724  0.93013005  0.02137202     1.93200
Cr1011     Cr  0.42210865  0.97136759  0.08504584     1.39100
O1012       O  0.39075749  0.96572286  0.04732530    -1.24500
O1013       O  0.50984903  0.62488691  0.05780960    -0.86800
O1014       O  0.04050711  0.60145974  0.98152820    -0.83800
C1015       C  0.03806605  0.57393345  0.99326119     0.96700
O1016       O  0.01353630  0.56036853  0.48865321    -0.83900
O1017       O  0.45358958  0.54957984  0.47475879    -0.86500
C1018       C  0.44060620  0.55130862  0.01575885     1.01200
O1019       O  0.44033723  0.57531006  0.03959258    -0.79300
O1020       O  0.46095443  0.62946630  0.07021599    -0.79500
C1021       C  0.48780525  0.62714765  0.08617240     1.01100
O1022       O  0.48279184  0.67041174  0.50475277    -0.86800
O1023       O  0.00910237  0.64292178  0.41683994    -0.83900
C1024       C  0.01674580  0.62214749  0.38771676     0.96700
O1025       O  0.51559153  0.59512855  0.40102667    -0.83900
O1026       O  0.45447878  0.59103846  0.39426001    -0.86500
C1027       C  0.42711716  0.58984145  0.40504502     1.01200
O1028       O  0.41864222  0.59685690  0.44815699    -0.79300
O1029       O  0.44176682  0.65313335  0.97434704    -0.79500
C1030       C  0.45490876  0.67321485  0.49797828     1.01100
Cr1031     Cr  0.00836978  0.63346179  0.98834241     1.93700
Cr1032     Cr  0.48393240  0.57617212  0.44237996     1.93200
Cr1033     Cr  0.44268911  0.61401081  0.00606870     1.39100
O1034       O  0.47828886  0.60751433  0.48011241    -1.24500
O1035       O  0.37338763  0.48843249  0.21963483    -0.86800
O1036       O  0.39680647  0.95778026  0.29592006    -0.83800
C1037       C  0.42433684  0.96021278  0.28417367     0.96700
O1038       O  0.43791160  0.98473446  0.28877952    -0.83900
O1039       O  0.44871094  0.54467357  0.30266417    -0.86500
C1040       C  0.44697747  0.55765807  0.26167168     1.01200
O1041       O  0.42297041  0.55792805  0.23784188    -0.79300
O1042       O  0.36880690  0.53731648  0.20723028    -0.79500
C1043       C  0.37112577  0.51047046  0.19127233     1.01100
O1044       O  0.32785596  0.51549557  0.27269192    -0.86800
O1045       O  0.35534459  0.98918822  0.36060528    -0.83900
C1046       C  0.37612093  0.98154306  0.38972702     0.96700
O1047       O  0.40314711  0.98269868  0.37642044    -0.83900
O1048       O  0.40725668  0.54380159  0.38317861    -0.86500
C1049       C  0.40844345  0.57115826  0.37239103     1.01200
O1050       O  0.40142564  0.57962642  0.32927954    -0.79300
O1051       O  0.34514339  0.55650501  0.30311255    -0.79500
C1052       C  0.32505857  0.54337320  0.27947351     1.01100
Cr1053     Cr  0.36480763  0.98991681  0.28910271     1.93700
Cr1054     Cr  0.42211353  0.51434324  0.33505537     1.93200
Cr1055     Cr  0.38426760  0.55558051  0.27137560     1.39100
O1056       O  0.39076428  0.51998851  0.29733091    -1.24500
O1057       O  0.22032934  0.85145721  0.48157180    -0.86800
O1058       O  0.25098882  0.87488287  0.55784470    -0.83800
C1059       C  0.27303292  0.87714047  0.58620431     0.96700
O1060       O  0.29988326  0.87946166  0.57024375    -0.83900
O1061       O  0.32049961  0.82530556  0.53961758    -0.86500
C1062       C  0.32023002  0.80130372  0.51578374     1.01200
O1063       O  0.30724581  0.79957498  0.97478692    -0.79300
O1064       O  0.24730096  0.81036581  0.98869547    -0.79500
C1065       C  0.22277129  0.82393097  0.49330722     1.01100
O1066       O  0.25173134  0.89291768  0.91687402    -0.86800
O1067       O  0.27804590  0.92040830  0.00478210    -0.83900
C1068       C  0.30592855  0.92321169  0.99799814     0.96700
O1069       O  0.31907030  0.90312798  0.47436924    -0.83900
O1070       O  0.34219300  0.84685019  0.94817731    -0.86500
C1071       C  0.33371758  0.83983355  0.90506721     1.01200
O1072       O  0.30635543  0.84102977  0.89428641    -0.79300
O1073       O  0.24524164  0.84512437  0.90106444    -0.79500
C1074       C  0.24408698  0.87214320  0.88775272     1.01100
Cr1075     Cr  0.25246656  0.88345855  0.98837776     1.93700
Cr1076     Cr  0.31814754  0.86400565  0.50609289     1.93200
Cr1077     Cr  0.27690236  0.82616726  0.94241341     1.39100
O1078       O  0.28254732  0.85751034  0.98014220    -1.24500
O1079       O  0.36403626  0.70777553  0.79592910    -0.86800
O1080       O  0.38745480  0.73842942  0.71964458    -0.83800
C1081       C  0.38971372  0.76046770  0.69128194     0.96700
O1082       O  0.39202864  0.78731387  0.70723922    -0.83900
O1083       O  0.33786384  0.80791853  0.73786178    -0.86500
C1084       C  0.31385830  0.80764934  0.76169739     1.01200
O1085       O  0.31212710  0.79466714  0.80269195    -0.79300
O1086       O  0.32292945  0.73472960  0.78879953    -0.79500
C1087       C  0.33650483  0.71020824  0.78418888     1.01100
O1088       O  0.40549724  0.73918556  0.86061302    -0.86800
O1089       O  0.43298378  0.76549559  0.77269488    -0.83900
C1090       C  0.43577813  0.79337415  0.77947159     0.96700
O1091       O  0.41569302  0.80650527  0.80311463    -0.83900
O1092       O  0.35940822  0.82962038  0.82929612    -0.86500
C1093       C  0.35239282  0.82115170  0.87240922     1.01200
O1094       O  0.35358349  0.79379499  0.88319653    -0.79300
O1095       O  0.35769557  0.73269149  0.87643140    -0.79500
C1096       C  0.38472136  0.73153914  0.88973657     1.01100
Cr1097     Cr  0.39603419  0.73991388  0.78911102     1.93700
Cr1098     Cr  0.37656752  0.80557627  0.77138754     1.93200
Cr1099     Cr  0.33872715  0.76433708  0.83507439     1.39100
O1100       O  0.37007527  0.76998404  0.79734417    -1.24500
O1101       O  0.25100100  0.61081748  0.80781870    -0.86800
O1102       O  0.22034251  0.63423810  0.73153886    -0.83800
C1103       C  0.22278063  0.66176306  0.74327910     0.96700
O1104       O  0.24730866  0.67533183  0.73866791    -0.83900
O1105       O  0.30725370  0.68612607  0.72477359    -0.86500
C1106       C  0.32023510  0.68439778  0.76577300     1.01200
O1107       O  0.32050645  0.66039582  0.78960281    -0.79300
O1108       O  0.29989540  0.60623913  0.82021978    -0.79500
C1109       C  0.27304453  0.60855626  0.83617942     1.01100
O1110       O  0.27806094  0.56529399  0.75475446    -0.86800
O1111       O  0.25175029  0.59277749  0.66684850    -0.83900
C1112       C  0.24410525  0.61354942  0.63772615     0.96700
O1113       O  0.24525951  0.64056977  0.65103417    -0.83900
O1114       O  0.30637210  0.64466871  0.64426773    -0.86500
C1115       C  0.33373333  0.64586789  0.65505201     1.01200
O1116       O  0.34220741  0.63885316  0.69816276    -0.79300
O1117       O  0.31908588  0.58257419  0.72434706    -0.79500
C1118       C  0.30594395  0.56249309  0.74797800     1.01100
Cr1119     Cr  0.25248148  0.60224040  0.73835030     1.93700
Cr1120     Cr  0.27691500  0.65953105  0.69239064     1.93200
Cr1121     Cr  0.31816025  0.62169632  0.75607311     1.39100
O1122       O  0.28256064  0.62818958  0.73011885    -1.24500
O1123       O  0.38746146  0.74727584  0.96964506    -0.86800
O1124       O  0.36403552  0.77792829  0.54593072    -0.83800
C1125       C  0.33650416  0.77549346  0.53419019     0.96700
O1126       O  0.32293283  0.75096969  0.53879051    -0.83900
O1127       O  0.31213718  0.69102903  0.55267530    -0.86500
C1128       C  0.31387131  0.67804136  0.51168416     1.01200
O1129       O  0.33787863  0.67777253  0.98785068    -0.79300
O1130       O  0.39204136  0.69839138  0.95723419    -0.79500
C1131       C  0.38972173  0.72523745  0.94127996     1.01100
O1132       O  0.43299326  0.72021478  0.52269567    -0.86800
O1133       O  0.40549719  0.74652146  0.61061571    -0.83900
C1134       C  0.38471802  0.75416547  0.63973672     0.96700
O1135       O  0.35769358  0.75301119  0.62642630    -0.83900
O1136       O  0.35359082  0.69190851  0.63318547    -0.86500
C1137       C  0.35240693  0.66455120  0.62239772     1.01200
O1138       O  0.35942666  0.65608179  0.57928575    -0.79300
O1139       O  0.41570688  0.67920580  0.55311401    -0.79500
C1140       C  0.43579222  0.69233708  0.52947509     1.01100
Cr1141     Cr  0.39603824  0.74579242  0.53911184     1.93700
Cr1142     Cr  0.33873192  0.72136331  0.58506354     1.93200
Cr1143     Cr  0.37658241  0.68012678  0.52138028     1.39100
O1144       O  0.37008257  0.71571934  0.54733710    -1.24500
O1145       O  0.29050393  0.63423691  0.48153910    -0.86800
O1146       O  0.25984772  0.61080988  0.55781861    -0.83800
C1147       C  0.23780440  0.60854900  0.58618170     0.96700
O1148       O  0.21095377  0.60622670  0.57022564    -0.83900
O1149       O  0.19033081  0.66038250  0.53961509    -0.86500
C1150       C  0.19060028  0.68438575  0.51578750     1.01200
O1151       O  0.20358369  0.68611597  0.97478832    -0.79300
O1152       O  0.26353160  0.67532759  0.98867552    -0.79500
C1153       C  0.28806269  0.66176239  0.49327771     1.01100
O1154       O  0.25910091  0.59277603  0.91684567    -0.86800
O1155       O  0.23279243  0.56528350  0.00475510    -0.83900
C1156       C  0.20490975  0.56247877  0.99797721     0.96700
O1157       O  0.19176665  0.58256086  0.47435141    -0.83900
O1158       O  0.16863720  0.63883742  0.94817535    -0.86500
C1159       C  0.17711123  0.64585457  0.90506473     1.01200
O1160       O  0.20447298  0.64466025  0.89427928    -0.79300
O1161       O  0.26558571  0.64057001  0.90103982    -0.79500
C1162       C  0.26674304  0.61355104  0.88772598     1.01100
Cr1163     Cr  0.25836815  0.60223477  0.98835014     1.93700
Cr1164     Cr  0.19268618  0.62168274  0.50608219     1.93200
Cr1165     Cr  0.23392692  0.65952512  0.94240077     1.39100
O1166       O  0.22828545  0.62818152  0.98012596    -1.24500
O1167       O  0.14679999  0.77791610  0.79596122    -0.86800
O1168       O  0.12337924  0.74726539  0.71967080    -0.83800
C1169       C  0.12111688  0.72522769  0.69130474     0.96700
O1170       O  0.11880039  0.69838134  0.70725786    -0.83900
O1171       O  0.17296377  0.67776712  0.73786646    -0.86500
C1172       C  0.19697124  0.67803691  0.76169596     1.01200
O1173       O  0.19870414  0.69101962  0.80269117    -0.79300
O1174       O  0.18790551  0.75096058  0.78881747    -0.79500
C1175       C  0.17433090  0.77548318  0.78421631     1.01100
O1176       O  0.10533857  0.74650628  0.86064125    -0.86800
O1177       O  0.07784899  0.72020315  0.77272213    -0.83900
C1178       C  0.07505247  0.69232506  0.77949390     0.96700
O1179       O  0.09513587  0.67919243  0.80313470    -0.83900
O1180       O  0.15141831  0.65606869  0.82930090    -0.86500
C1181       C  0.15843551  0.66453667  0.87241376     1.01200
O1182       O  0.15724770  0.69189317  0.88320475    -0.79300
O1183       O  0.15314119  0.75299515  0.87645480    -0.79500
C1184       C  0.12611557  0.75415001  0.88976296     1.01100
Cr1185     Cr  0.11480070  0.74578006  0.78913863     1.93700
Cr1186     Cr  0.13426064  0.68011572  0.77140002     1.93200
Cr1187     Cr  0.17210662  0.72135074  0.83508665     1.39100
O1188       O  0.14075757  0.71570738  0.79736050    -1.24500
O1189       O  0.25983133  0.87487321  0.80784369    -0.86800
O1190       O  0.29048938  0.85144968  0.73155763    -0.83800
C1191       C  0.28804941  0.82392422  0.74329140     0.96700
O1192       O  0.26352136  0.81035681  0.73868104    -0.83900
O1193       O  0.20357760  0.79956608  0.72479650    -0.86500
C1194       C  0.19059960  0.80129406  0.76580040     1.01200
O1195       O  0.19032823  0.82529690  0.78963252    -0.79300
O1196       O  0.21093748  0.87945776  0.82024707    -0.79500
C1197       C  0.23778750  0.87713773  0.83620608     1.01100
O1198       O  0.23277450  0.92039615  0.75477804    -0.86800
O1199       O  0.25908704  0.89291099  0.66687466    -0.83900
C1200       C  0.26673138  0.87213904  0.63774864     0.96700
O1201       O  0.26557312  0.84511843  0.65105147    -0.83900
O1202       O  0.20445926  0.84102364  0.64429430    -0.86500
C1203       C  0.17709830  0.83982334  0.65508290     1.01200
O1204       O  0.16862533  0.84683605  0.69819678    -0.79300
O1205       O  0.19175011  0.90311475  0.72437068    -0.79500
C1206       C  0.20489289  0.92319897  0.74799436     1.01100
Cr1207     Cr  0.25835297  0.88344873  0.73837489     1.93700
Cr1208     Cr  0.23391635  0.82615931  0.69241048     1.93200
Cr1209     Cr  0.19267373  0.86399560  0.75610240     1.39100
O1210       O  0.22827297  0.85750067  0.73014391    -1.21300
O1211       O  0.12337367  0.73841514  0.96966960    -0.86800
O1212       O  0.14679607  0.70776301  0.54595023    -0.83800
C1213       C  0.17432740  0.71019665  0.53420494     0.96700
O1214       O  0.18789955  0.73472016  0.53880813    -0.83900
O1215       O  0.19869664  0.79466244  0.55270232    -0.86500
C1216       C  0.19696255  0.80765185  0.51171318     1.01200
O1217       O  0.17295671  0.80791938  0.98788172    -0.79300
O1218       O  0.11879798  0.78729984  0.95726144    -0.79500
C1219       C  0.12111570  0.76045311  0.94130640     1.01100
O1220       O  0.07783976  0.76547873  0.52271744    -0.86800
O1221       O  0.10533333  0.73917347  0.61064089    -0.83900
C1222       C  0.12611211  0.73152924  0.63975949     0.96700
O1223       O  0.15313659  0.73268114  0.62644566    -0.83900
O1224       O  0.15724095  0.79378299  0.63321275    -0.86500
C1225       C  0.15842445  0.82114029  0.62242854     1.01200
O1226       O  0.15140417  0.82961029  0.57931894    -0.79300
O1227       O  0.09512394  0.80648930  0.55313502    -0.79500
C1228       C  0.07504201  0.79335774  0.52948854     1.01100
Cr1229     Cr  0.11479411  0.73990048  0.53913580     1.93700
Cr1230     Cr  0.17210014  0.76432803  0.58508614     1.93200
Cr1231     Cr  0.13425179  0.80556577  0.52140890     1.39100
O1232       O  0.14075004  0.76997323  0.54736266    -1.24500
O1233       O  0.47034567  0.60145944  0.73152720    -0.86800
O1234       O  0.00100272  0.62488176  0.80781041    -0.83800
C1235       C  0.02304624  0.62714296  0.83617145     0.96700
O1236       O  0.04989692  0.62945970  0.82021307    -0.83900
O1237       O  0.07050627  0.57530276  0.78958829    -0.86500
C1238       C  0.07023551  0.55130080  0.76575505     1.01200
O1239       O  0.05725893  0.54957427  0.72475180    -0.79300
O1240       O  0.49731479  0.56036635  0.73864727    -0.79500
C1241       C  0.47278586  0.57393382  0.74326052     1.01100
O1242       O  0.00174993  0.64292167  0.66684135    -0.86800
O1243       O  0.02805891  0.67040570  0.75475247    -0.83900
C1244       C  0.05594279  0.67320689  0.74798480     0.96700
O1245       O  0.06908808  0.65312738  0.72435089    -0.83900
O1246       O  0.09221016  0.59684602  0.69815257    -0.86500
C1247       C  0.08373622  0.58983203  0.65504044     1.01200
O1248       O  0.05637544  0.59103517  0.64425521    -0.79300
O1249       O  0.99526228  0.59512928  0.65102164    -0.79500
C1250       C  0.99410609  0.62214920  0.63771653     1.01100
Cr1251     Cr  0.00248214  0.63345868  0.73834263     1.93700
Cr1252     Cr  0.06816198  0.61400307  0.75606540     1.93200
Cr1253     Cr  0.02691950  0.57616958  0.69237374     1.39100
O1254       O  0.03256292  0.60751063  0.73010784    -1.24500
O1255       O  0.11403641  0.95776404  0.54590775    -0.86800
O1256       O  0.13745877  0.48841634  0.96962593    -0.83800
C1257       C  0.13971845  0.51045475  0.94126421     0.96700
O1258       O  0.14204375  0.53730010  0.95722248    -0.83900
O1259       O  0.08788272  0.55792363  0.98783772    -0.86500
C1260       C  0.06387466  0.55765446  0.51166734     1.01200
O1261       O  0.06213808  0.54466489  0.55265600    -0.79300
O1262       O  0.07293404  0.98472326  0.53876603    -0.79500
C1263       C  0.08650605  0.96019910  0.53416232     1.01100
O1264       O  0.15549828  0.98916979  0.61059572    -0.86800
O1265       O  0.18299391  0.51547640  0.52267699    -0.83900
C1266       C  0.18579367  0.54335341  0.52946675     0.96700
O1267       O  0.16570795  0.55648327  0.55310923    -0.83900
O1268       O  0.10942926  0.57961247  0.57927571    -0.86500
C1269       C  0.10240730  0.57114434  0.62238575     1.01200
O1270       O  0.10358719  0.54378672  0.63317085    -0.79300
O1271       O  0.10769435  0.48268355  0.62640685    -0.79500
C1272       C  0.13471913  0.98152821  0.63971738     1.01100
Cr1273     Cr  0.14603852  0.98989931  0.53909168     1.93700
Cr1274     Cr  0.12658504  0.55556587  0.52137006     1.93200
Cr1275     Cr  0.08873172  0.51433057  0.58504424     1.39100
O1276       O  0.12008337  0.51997365  0.54732142    -1.24500
O1277       O  0.00099105  0.86080790  0.55779918    -0.86800
O1278       O  0.47033463  0.88423529  0.48152366    -0.83800
C1279       C  0.47277525  0.91176110  0.49325859     0.96700
O1280       O  0.49730622  0.92532601  0.98865229    -0.83900
O1281       O  0.05725188  0.93611576  0.97474944    -0.86500
C1282       C  0.07023331  0.93438867  0.51574852     1.01200
O1283       O  0.07050157  0.91038743  0.53958098    -0.79300
O1284       O  0.04988585  0.85623368  0.57020505    -0.79500
C1285       C  0.02303430  0.85854991  0.58616102     1.01100
O1286       O  0.02804784  0.81528199  0.00473905    -0.86800
O1287       O  0.00173889  0.84277287  0.91682576    -0.83900
C1288       C  0.99409390  0.86354764  0.88770772     0.96700
O1289       O  0.99524905  0.89056630  0.90102208    -0.83900
O1290       O  0.05636128  0.89465431  0.89424975    -0.86500
C1291       C  0.08372260  0.89585413  0.90503159     1.01200
O1292       O  0.09219877  0.88883757  0.94814109    -0.79300
O1293       O  0.06907912  0.83255710  0.47434676    -0.79500
C1294       C  0.05593258  0.81247852  0.99797814     1.01100
Cr1295     Cr  0.00247141  0.85223261  0.98833098     1.93700
Cr1296     Cr  0.02690889  0.90952189  0.94237381     1.93200
Cr1297     Cr  0.06815241  0.87168502  0.50605764     1.39100
O1298       O  0.03255291  0.87817934  0.98010148    -1.24500
O1299       O  0.13745150  0.99726697  0.71962745    -0.86800
O1300       O  0.11403246  0.52792116  0.79591789    -0.83800
C1301       C  0.08650250  0.52548938  0.78417171     0.96700
O1302       O  0.07292680  0.50096807  0.78877608    -0.83900
O1303       O  0.06212648  0.94102812  0.80265076    -0.86500
C1304       C  0.06386216  0.92804085  0.76165865     1.01200
O1305       O  0.08787049  0.92776908  0.73782881    -0.79300
O1306       O  0.14203645  0.94838299  0.70722141    -0.79500
C1307       C  0.13971524  0.97522811  0.69126358     1.01100
O1308       O  0.18298102  0.97020242  0.77268222    -0.86800
O1309       O  0.15549209  0.99651058  0.86059501    -0.83900
C1310       C  0.13471569  0.00415423  0.88972045     0.96700
O1311       O  0.10768948  0.00300089  0.87641601    -0.83900
O1312       O  0.10357573  0.94189811  0.88316796    -0.86500
C1313       C  0.10239266  0.91454097  0.87237756     1.01200
O1314       O  0.10941053  0.90607377  0.82926429    -0.79300
O1315       O  0.16568953  0.92919982  0.80311535    -0.79500
C1316       C  0.18577740  0.94232633  0.77947688     1.01100
Cr1317     Cr  0.14603017  0.99578314  0.78909452     1.93700
Cr1318     Cr  0.08872226  0.97135784  0.83504748     1.93200
Cr1319     Cr  0.12657100  0.93011986  0.77136576     1.39100
O1320       O  0.12007204  0.96571238  0.79732113    -1.24500
O1321       O  0.04049273  0.88423844  0.73151513    -0.86800
O1322       O  0.50983494  0.86081556  0.80779789    -0.83800
C1323       C  0.48779180  0.85855452  0.83616187     0.96700
O1324       O  0.46094046  0.85624172  0.82020646    -0.83900
O1325       O  0.44033578  0.91040113  0.78958892    -0.86500
C1326       C  0.44060513  0.93440148  0.76575631     1.01200
O1327       O  0.45358120  0.93612691  0.72475031    -0.79300
O1328       O  0.01352529  0.92533334  0.73863928    -0.79500
C1329       C  0.03805357  0.91176507  0.74324888     1.01100
O1330       O  0.00908555  0.84277764  0.66682695    -0.86800
O1331       O  0.48277410  0.81529446  0.75473577    -0.83900
C1332       C  0.45489012  0.81249480  0.74796979     0.96700
O1333       O  0.44174589  0.83257616  0.72434248    -0.83900
O1334       O  0.41862928  0.88885834  0.69815314    -0.86500
C1335       C  0.42710371  0.89586891  0.65503942     1.01200
O1336       O  0.45446445  0.89466407  0.64425160    -0.79300
O1337       O  0.51557737  0.89056933  0.65101268    -0.79500
C1338       C  0.01673164  0.86354932  0.63770477     1.01100
Cr1339     Cr  0.00835425  0.85224016  0.73832908     1.93700
Cr1340     Cr  0.44267615  0.87170024  0.75606219     1.93200
Cr1341     Cr  0.48392024  0.90953022  0.69236833     1.39100
O1342       O  0.47827538  0.87819017  0.73010108    -1.24500
O1343       O  0.39680227  0.52793218  0.54591587    -0.86800
O1344       O  0.37337802  0.99727900  0.96963568    -0.83800
C1345       C  0.37111922  0.97524060  0.94127114     0.96700
O1346       O  0.36879747  0.94839478  0.95722668    -0.83900
O1347       O  0.42295985  0.92777326  0.98783598    -0.86500
C1348       C  0.44696760  0.92804221  0.51166640     1.01200
O1349       O  0.44870272  0.94103233  0.55265434    -0.79300
O1350       O  0.43790575  0.50097382  0.53876826    -0.79500
C1351       C  0.42433336  0.52549758  0.53416920     1.01100
O1352       O  0.35534235  0.99652488  0.61060795    -0.86800
O1353       O  0.32784599  0.97021613  0.52269194    -0.83900
C1354       C  0.32504743  0.94233895  0.52948058     0.96700
O1355       O  0.34513470  0.92921038  0.55311642    -0.83900
O1356       O  0.40141344  0.90608557  0.57927512    -0.86500
C1357       C  0.40843348  0.91455512  0.62238584     1.01200
O1358       O  0.40725252  0.94191289  0.63317239    -0.79300
O1359       O  0.40314593  0.00301561  0.62641101    -0.79500
C1360       C  0.37612141  0.00416893  0.63972609     1.01100
Cr1361     Cr  0.36480058  0.99579554  0.53910266     1.93700
Cr1362     Cr  0.38425723  0.93013002  0.52137188     1.93200
Cr1363     Cr  0.42210856  0.97136749  0.58504590     1.39100
O1364       O  0.39075743  0.96572278  0.54732527    -1.24500
O1365       O  0.50984898  0.62488688  0.55780967    -0.86800
O1366       O  0.04050724  0.60145978  0.48152825    -0.83800
C1367       C  0.03806613  0.57393337  0.49326138     0.96700
O1368       O  0.01353619  0.56036847  0.98865298    -0.83900
O1369       O  0.45358961  0.54957972  0.97475856    -0.86500
C1370       C  0.44060628  0.55130842  0.51575833     1.01200
O1371       O  0.44033698  0.57531019  0.53959264    -0.79300
O1372       O  0.46095435  0.62946633  0.57021607    -0.79500
C1373       C  0.48780516  0.62714772  0.58617250     1.01100
O1374       O  0.48279182  0.67041175  0.00475261    -0.86800
O1375       O  0.00910225  0.64292177  0.91683981    -0.83900
C1376       C  0.01674570  0.62214759  0.88771684     0.96700
O1377       O  0.51559159  0.59512857  0.90102654    -0.83900
O1378       O  0.45447885  0.59103846  0.89425999    -0.86500
C1379       C  0.42711718  0.58984145  0.90504516     1.01200
O1380       O  0.41864233  0.59685678  0.94815699    -0.79300
O1381       O  0.44176673  0.65313353  0.47434715    -0.79500
C1382       C  0.45490881  0.67321475  0.99797820     1.01100
Cr1383     Cr  0.00836991  0.63346176  0.48834251     1.93700
Cr1384     Cr  0.48393246  0.57617203  0.94237989     1.93200
Cr1385     Cr  0.44268896  0.61401091  0.50606871     1.39100
O1386       O  0.47828895  0.60751425  0.98011226    -1.24500
O1387       O  0.37338755  0.48843250  0.71963500    -0.86800
O1388       O  0.39680633  0.95778023  0.79592002    -0.83800
C1389       C  0.42433714  0.96021314  0.78417353     0.96700
O1390       O  0.43791147  0.98473436  0.78877938    -0.83900
O1391       O  0.44871110  0.54467356  0.80266410    -0.86500
C1392       C  0.44697759  0.55765809  0.76167183     1.01200
O1393       O  0.42297045  0.55792802  0.73784193    -0.79300
O1394       O  0.36880691  0.53731651  0.70723024    -0.79500
C1395       C  0.37112585  0.51047050  0.69127238     1.01100
O1396       O  0.32785601  0.51549557  0.77269191    -0.86800
O1397       O  0.35534455  0.98918831  0.86060544    -0.83900
C1398       C  0.37612091  0.98154307  0.88972712     0.96700
O1399       O  0.40314707  0.98269859  0.87642034    -0.83900
O1400       O  0.40725685  0.54380149  0.88317862    -0.86500
C1401       C  0.40844353  0.57115826  0.87239086     1.01200
O1402       O  0.40142566  0.57962631  0.82927952    -0.79300
O1403       O  0.34514337  0.55650506  0.80311263    -0.79500
C1404       C  0.32505859  0.54337327  0.77947357     1.01100
Cr1405     Cr  0.36480756  0.98991684  0.78910278     1.93700
Cr1406     Cr  0.42211359  0.51434318  0.83505535     1.93200
Cr1407     Cr  0.38426760  0.55558046  0.77137564     1.39100
O1408       O  0.39076423  0.51998845  0.79733105    -1.24500
O1409       O  0.72032932  0.35145711  0.98157173    -0.86800
O1410       O  0.75098882  0.37488289  0.05784465    -0.83800
C1411       C  0.77303289  0.37714050  0.08620448     0.96700
O1412       O  0.79988325  0.37946173  0.07024381    -0.83900
O1413       O  0.82049961  0.32530560  0.03961771    -0.86500
C1414       C  0.82022999  0.30130376  0.01578346     1.01200
O1415       O  0.80724577  0.29957487  0.47478684    -0.79300
O1416       O  0.74730095  0.31036590  0.48869554    -0.79500
C1417       C  0.72277105  0.32393120  0.99330714     1.01100
O1418       O  0.75173135  0.39291765  0.41687406    -0.86800
O1419       O  0.77804593  0.42040829  0.50478206    -0.83900
C1420       C  0.80592847  0.42321168  0.49799819     0.96700
O1421       O  0.81907032  0.40312811  0.97436931    -0.83900
O1422       O  0.84219307  0.34685017  0.44817715    -0.86500
C1423       C  0.83371763  0.33983354  0.40506732     1.01200
O1424       O  0.80635538  0.34102969  0.39428648    -0.79300
O1425       O  0.74524167  0.34512437  0.40106463    -0.79500
C1426       C  0.74408706  0.37214320  0.38775294     1.01100
Cr1427     Cr  0.75246657  0.38345851  0.48837780     1.93700
Cr1428     Cr  0.81814754  0.36400575  0.00609298     1.93200
Cr1429     Cr  0.77690242  0.32616718  0.44241355     1.39100
O1430       O  0.78254736  0.35751028  0.48014218    -1.24500
O1431       O  0.86403628  0.20777551  0.29592922    -0.86800
O1432       O  0.88745480  0.23842938  0.21964453    -0.83800
C1433       C  0.88971369  0.26046755  0.19128180     0.96700
O1434       O  0.89202869  0.28731383  0.20723919    -0.83900
O1435       O  0.83786380  0.30791856  0.23786186    -0.86500
C1436       C  0.81385844  0.30764935  0.26169696     1.01200
O1437       O  0.81212716  0.29466718  0.30269212    -0.79300
O1438       O  0.82292949  0.23472955  0.28879967    -0.79500
C1439       C  0.83650484  0.21020826  0.28418901     1.01100
O1440       O  0.90549725  0.23918552  0.36061304    -0.86800
O1441       O  0.93298374  0.26549550  0.27269515    -0.83900
C1442       C  0.93577812  0.29337405  0.27947160     0.96700
O1443       O  0.91569300  0.30650532  0.30311456    -0.83900
O1444       O  0.85940815  0.32962048  0.32929615    -0.86500
C1445       C  0.85239279  0.32115185  0.37240909     1.01200
O1446       O  0.85358354  0.29379504  0.38319655    -0.79300
O1447       O  0.85769558  0.23269151  0.37643154    -0.79500
C1448       C  0.88472135  0.23153921  0.38973672     1.01100
Cr1449     Cr  0.89603417  0.23991380  0.28911108     1.93700
Cr1450     Cr  0.87656751  0.30557626  0.27138757     1.93200
Cr1451     Cr  0.83872719  0.26433710  0.33507452     1.39100
O1452       O  0.87007529  0.26998399  0.29734430    -1.24500
O1453       O  0.75100101  0.11081746  0.30781881    -0.86800
O1454       O  0.72034253  0.13423816  0.23153899    -0.83800
C1455       C  0.72278059  0.16176295  0.24327916     0.96700
O1456       O  0.74730877  0.17533184  0.23866811    -0.83900
O1457       O  0.80725375  0.18612598  0.22477366    -0.86500
C1458       C  0.82023513  0.18439762  0.26577307     1.01200
O1459       O  0.82050650  0.16039578  0.28960290    -0.79300
O1460       O  0.79989541  0.10623893  0.32021994    -0.79500
C1461       C  0.77304451  0.10855624  0.33617944     1.01100
O1462       O  0.77806093  0.06529403  0.25475457    -0.86800
O1463       O  0.75175026  0.09277749  0.16684862    -0.83900
C1464       C  0.74410528  0.11354944  0.13772618     0.96700
O1465       O  0.74525953  0.14056978  0.15103429    -0.83900
O1466       O  0.80637206  0.14466869  0.14426783    -0.86500
C1467       C  0.83373332  0.14586777  0.15505191     1.01200
O1468       O  0.84220746  0.13885308  0.19816276    -0.79300
O1469       O  0.81908588  0.08257418  0.22434713    -0.79500
C1470       C  0.80594390  0.06249306  0.24797799     1.01100
Cr1471     Cr  0.75248146  0.10224041  0.23835040     1.93700
Cr1472     Cr  0.77691501  0.15953104  0.19239076     1.93200
Cr1473     Cr  0.81816028  0.12169625  0.25607323     1.39100
O1474       O  0.78256066  0.12818957  0.23011903    -1.24500
O1475       O  0.88746151  0.24727589  0.46964520    -0.86800
O1476       O  0.86403545  0.27792815  0.04593063    -0.83800
C1477       C  0.83650430  0.27549346  0.03419025     0.96700
O1478       O  0.82293277  0.25096961  0.03879042    -0.83900
O1479       O  0.81213714  0.19102900  0.05267524    -0.86500
C1480       C  0.81387130  0.17804132  0.01168390     1.01200
O1481       O  0.83787870  0.17777260  0.48785078    -0.79300
O1482       O  0.89204138  0.19839145  0.45723434    -0.79500
C1483       C  0.88972174  0.22523748  0.44128011     1.01100
O1484       O  0.93299326  0.22021464  0.02269562    -0.86800
O1485       O  0.90549713  0.24652138  0.11061564    -0.83900
C1486       C  0.88471795  0.25416540  0.13973682     0.96700
O1487       O  0.85769351  0.25301099  0.12642627    -0.83900
O1488       O  0.85359067  0.19190839  0.13318529    -0.86500
C1489       C  0.85240685  0.16455111  0.12239751     1.01200
O1490       O  0.85942662  0.15608168  0.07928559    -0.79300
O1491       O  0.91570684  0.17920567  0.05311390    -0.79500
C1492       C  0.93579215  0.19233687  0.02947500     1.01100
Cr1493     Cr  0.89603821  0.24579230  0.03911177     1.93700
Cr1494     Cr  0.83873190  0.22136321  0.08506340     1.93200
Cr1495     Cr  0.87658238  0.18012669  0.02138007     1.39100
O1496       O  0.87008253  0.21571920  0.04733693    -1.24500
O1497       O  0.79050392  0.13423697  0.98153888    -0.86800
O1498       O  0.75984765  0.11081001  0.05781844    -0.83800
C1499       C  0.73780437  0.10854902  0.08618173     0.96700
O1500       O  0.71095375  0.10622677  0.07022568    -0.83900
O1501       O  0.69033090  0.16038263  0.03961500    -0.86500
C1502       C  0.69060024  0.18438568  0.01578758     1.01200
O1503       O  0.70358371  0.18611594  0.47478836    -0.79300
O1504       O  0.76353165  0.17532750  0.48867566    -0.79500
C1505       C  0.78806266  0.16176257  0.99327763     1.01100
O1506       O  0.75910098  0.09277590  0.41684569    -0.86800
O1507       O  0.73279241  0.06528339  0.50475532    -0.83900
C1508       C  0.70490980  0.06247867  0.49797725     0.96700
O1509       O  0.69176659  0.08256102  0.97435146    -0.83900
O1510       O  0.66863721  0.13883727  0.44817530    -0.86500
C1511       C  0.67711121  0.14585450  0.40506493     1.01200
O1512       O  0.70447301  0.14466016  0.39427928    -0.79300
O1513       O  0.76558568  0.14056993  0.40104000    -0.79500
C1514       C  0.76674301  0.11355097  0.38772604     1.01100
Cr1515     Cr  0.75836818  0.10223463  0.48835028     1.93700
Cr1516     Cr  0.69268621  0.12168285  0.00608219     1.93200
Cr1517     Cr  0.73392691  0.15952503  0.44240091     1.39100
O1518       O  0.72828545  0.12818140  0.48012614    -1.24500
O1519       O  0.64679994  0.27791602  0.29596117    -0.86800
O1520       O  0.62337924  0.24726533  0.21967081    -0.83800
C1521       C  0.62111679  0.22522765  0.19130470     0.96700
O1522       O  0.61880040  0.19838127  0.20725788    -0.83900
O1523       O  0.67296382  0.17776714  0.23786651    -0.86500
C1524       C  0.69697137  0.17803703  0.26169627     1.01200
O1525       O  0.69870415  0.19101965  0.30269119    -0.79300
O1526       O  0.68790555  0.25096056  0.28881763    -0.79500
C1527       C  0.67433089  0.27548315  0.28421631     1.01100
O1528       O  0.60533858  0.24650620  0.36064143    -0.86800
O1529       O  0.57784896  0.22020308  0.27272228    -0.83900
C1530       C  0.57505252  0.19232496  0.27949391     0.96700
O1531       O  0.59513595  0.17919231  0.30313460    -0.83900
O1532       O  0.65141840  0.15606863  0.32930103    -0.86500
C1533       C  0.65843555  0.16453656  0.37241376     1.01200
O1534       O  0.65724769  0.19189318  0.38320479    -0.79300
O1535       O  0.65314119  0.25299525  0.37645482    -0.79500
C1536       C  0.62611556  0.25414988  0.38976312     1.01100
Cr1537     Cr  0.61480069  0.24578002  0.28913869     1.93700
Cr1538     Cr  0.63426073  0.18011569  0.27140009     1.93200
Cr1539     Cr  0.67210662  0.22135079  0.33508676     1.39100
O1540       O  0.64075758  0.21570738  0.29736063    -1.24500
O1541       O  0.75983126  0.37487314  0.30784382    -0.86800
O1542       O  0.79048933  0.35144973  0.23155783    -0.83800
C1543       C  0.78804923  0.32392393  0.24329145     0.96700
O1544       O  0.76352136  0.31035682  0.23868117    -0.83900
O1545       O  0.70357762  0.29956600  0.22479663    -0.86500
C1546       C  0.69059953  0.30129400  0.26580044     1.01200
O1547       O  0.69032819  0.32529683  0.28963256    -0.79300
O1548       O  0.71093742  0.37945770  0.32024712    -0.79500
C1549       C  0.73778745  0.37713772  0.33620605     1.01100
O1550       O  0.73277449  0.42039604  0.25477823    -0.86800
O1551       O  0.75908690  0.39291093  0.16687487    -0.83900
C1552       C  0.76673131  0.37213899  0.13774863     0.96700
O1553       O  0.76557311  0.34511837  0.15105155    -0.83900
O1554       O  0.70445933  0.34102350  0.14429436    -0.86500
C1555       C  0.67709834  0.33982329  0.15508282     1.01200
O1556       O  0.66862531  0.34683606  0.19819667    -0.79300
O1557       O  0.69175009  0.40311470  0.22437071    -0.79500
C1558       C  0.70489283  0.42319886  0.24799452     1.01100
Cr1559     Cr  0.75835292  0.38344869  0.23837507     1.93700
Cr1560     Cr  0.73391638  0.32615924  0.19241060     1.93200
Cr1561     Cr  0.69267368  0.36399554  0.25610231     1.39100
O1562       O  0.72827293  0.35750066  0.23014389    -1.21300
O1563       O  0.62337350  0.23841518  0.46966968    -0.86800
O1564       O  0.64679611  0.20776299  0.04595031    -0.83800
C1565       C  0.67432756  0.21019680  0.03420477     0.96700
O1566       O  0.68789959  0.23472016  0.03880825    -0.83900
O1567       O  0.69869667  0.29466238  0.05270232    -0.86500
C1568       C  0.69696275  0.30765165  0.01171370     1.01200
O1569       O  0.67295674  0.30791953  0.48788174    -0.79300
O1570       O  0.61879795  0.28729988  0.45726127    -0.79500
C1571       C  0.62111565  0.26045300  0.44130647     1.01100
O1572       O  0.57783981  0.26547866  0.02271759    -0.86800
O1573       O  0.60533332  0.23917351  0.11064103    -0.83900
C1574       C  0.62611208  0.23152920  0.13975963     0.96700
O1575       O  0.65313657  0.23268101  0.12644581    -0.83900
O1576       O  0.65724093  0.29378295  0.13321293    -0.86500
C1577       C  0.65842448  0.32114026  0.12242864     1.01200
O1578       O  0.65140418  0.32961017  0.07931894    -0.79300
O1579       O  0.59512394  0.30648929  0.05313502    -0.79500
C1580       C  0.57504213  0.29335793  0.02948882     1.01100
Cr1581     Cr  0.61479415  0.23990043  0.03913590     1.93700
Cr1582     Cr  0.67210016  0.26432799  0.08508638     1.93200
Cr1583     Cr  0.63425183  0.30556568  0.02140905     1.39100
O1584       O  0.64075005  0.26997315  0.04736289    -1.24500
O1585       O  0.97034566  0.10145948  0.23152731    -0.86800
O1586       O  0.50100276  0.12488172  0.30781045    -0.83800
C1587       C  0.52304631  0.12714291  0.33617162     0.96700
O1588       O  0.54989700  0.12945961  0.32021313    -0.83900
O1589       O  0.57050638  0.07530269  0.28958812    -0.86500
C1590       C  0.57023562  0.05130083  0.26575527     1.01200
O1591       O  0.55725889  0.04957420  0.22475164    -0.79300
O1592       O  0.99731475  0.06036637  0.23864737    -0.79500
C1593       C  0.97278592  0.07393377  0.24326076     1.01100
O1594       O  0.50174990  0.14292160  0.16684132    -0.86800
O1595       O  0.52805895  0.17040565  0.25475260    -0.83900
C1596       C  0.55594282  0.17320677  0.24798492     0.96700
O1597       O  0.56908805  0.15312728  0.22435085    -0.83900
O1598       O  0.59221018  0.09684597  0.19815248    -0.86500
C1599       C  0.58373611  0.08983197  0.15504033     1.01200
O1600       O  0.55637535  0.09103507  0.14425529    -0.79300
O1601       O  0.49526227  0.09512923  0.15102166    -0.79500
C1602       C  0.49410608  0.12214921  0.13771657     1.01100
Cr1603     Cr  0.50248219  0.13345864  0.23834272     1.93700
Cr1604     Cr  0.56816211  0.11400302  0.25606540     1.93200
Cr1605     Cr  0.52691949  0.07616959  0.19237384     1.39100
O1606       O  0.53256302  0.10751060  0.23010795    -1.24500
O1607       O  0.61403645  0.45776397  0.04590777    -0.86800
O1608       O  0.63745864  0.98841628  0.46962587    -0.83800
C1609       C  0.63971841  0.01045482  0.44126413     0.96700
O1610       O  0.64204374  0.03730004  0.45722258    -0.83900
O1611       O  0.58788272  0.05792365  0.48783795    -0.86500
C1612       C  0.56387468  0.05765453  0.01166713     1.01200
O1613       O  0.56213795  0.04466478  0.05265581    -0.79300
O1614       O  0.57293406  0.48472316  0.03876598    -0.79500
C1615       C  0.58650592  0.46019920  0.03416226     1.01100
O1616       O  0.65549832  0.48916981  0.11059575    -0.86800
O1617       O  0.68299389  0.01547642  0.02267695    -0.83900
C1618       C  0.68579356  0.04335361  0.02946684     0.96700
O1619       O  0.66570795  0.05648333  0.05310904    -0.83900
O1620       O  0.60942926  0.07961248  0.07927564    -0.86500
C1621       C  0.60240718  0.07114429  0.12238568     1.01200
O1622       O  0.60358708  0.04378673  0.13317074    -0.79300
O1623       O  0.60769430  0.98268353  0.12640677    -0.79500
C1624       C  0.63471917  0.48152815  0.13971726     1.01100
Cr1625     Cr  0.64603856  0.48989930  0.03909171     1.93700
Cr1626     Cr  0.62658498  0.05556589  0.02136991     1.93200
Cr1627     Cr  0.58873166  0.01433054  0.08504409     1.39100
O1628       O  0.62008331  0.01997362  0.04732121    -1.24500
O1629       O  0.50099105  0.36080789  0.05779912    -0.86800
O1630       O  0.97033460  0.38423533  0.98152349    -0.83800
C1631       C  0.97277543  0.41176134  0.99325854     0.96700
O1632       O  0.99730615  0.42532604  0.48865220    -0.83900
O1633       O  0.55725197  0.43611576  0.47474942    -0.86500
C1634       C  0.57023336  0.43438838  0.01574879     1.01200
O1635       O  0.57050166  0.41038735  0.03958090    -0.79300
O1636       O  0.54988589  0.35623364  0.07020487    -0.79500
C1637       C  0.52303430  0.35855000  0.08616103     1.01100
O1638       O  0.52804780  0.31528190  0.50473912    -0.86800
O1639       O  0.50173888  0.34277290  0.41682579    -0.83900
C1640       C  0.49409387  0.36354774  0.38770761     0.96700
O1641       O  0.49524904  0.39056633  0.40102205    -0.83900
O1642       O  0.55636124  0.39465432  0.39424973    -0.86500
C1643       C  0.58372261  0.39585416  0.40503174     1.01200
O1644       O  0.59219869  0.38883756  0.44814113    -0.79300
O1645       O  0.56907912  0.33255707  0.97434652    -0.79500
C1646       C  0.55593254  0.31247851  0.49797813     1.01100
Cr1647     Cr  0.50247137  0.35223256  0.48833101     1.93700
Cr1648     Cr  0.52690889  0.40952191  0.44237370     1.93200
Cr1649     Cr  0.56815242  0.37168491  0.00605745     1.39100
O1650       O  0.53255284  0.37817937  0.48010160    -1.24500
O1651       O  0.63745155  0.49726697  0.21962732    -0.86800
O1652       O  0.61403259  0.02792120  0.29591786    -0.83800
C1653       C  0.58650243  0.02548924  0.28417157     0.96700
O1654       O  0.57292697  0.00096810  0.28877594    -0.83900
O1655       O  0.56212647  0.44102820  0.30265066    -0.86500
C1656       C  0.56386212  0.42804088  0.26165872     1.01200
O1657       O  0.58787053  0.42776899  0.23782880    -0.79300
O1658       O  0.64203650  0.44838301  0.20722143    -0.79500
C1659       C  0.63971525  0.47522825  0.19126367     1.01100
O1660       O  0.68298103  0.47020239  0.27268217    -0.86800
O1661       O  0.65549211  0.49651064  0.36059504    -0.83900
C1662       C  0.63471569  0.50415424  0.38972051     0.96700
O1663       O  0.60768950  0.50300095  0.37641595    -0.83900
O1664       O  0.60357564  0.44189814  0.38316798    -0.86500
C1665       C  0.60239265  0.41454093  0.37237746     1.01200
O1666       O  0.60941054  0.40607379  0.32926431    -0.79300
O1667       O  0.66568952  0.42919989  0.30311546    -0.79500
C1668       C  0.68577741  0.44232635  0.27947697     1.01100
Cr1669     Cr  0.64603018  0.49578314  0.28909453     1.93700
Cr1670     Cr  0.58872228  0.47135785  0.33504743     1.93200
Cr1671     Cr  0.62657105  0.43011987  0.27136570     1.39100
O1672       O  0.62007205  0.46571237  0.29732103    -1.24500
O1673       O  0.54049271  0.38423847  0.23151506    -0.86800
O1674       O  0.00983496  0.36081551  0.30779788    -0.83800
C1675       C  0.98779187  0.35855448  0.33616190     0.96700
O1676       O  0.96094046  0.35624166  0.32020638    -0.83900
O1677       O  0.94033575  0.41040094  0.28958897    -0.86500
C1678       C  0.94060523  0.43440173  0.26575578     1.01200
O1679       O  0.95358117  0.43612690  0.22475047    -0.79300
O1680       O  0.51352519  0.42533326  0.23863936    -0.79500
C1681       C  0.53805358  0.41176500  0.24324888     1.01100
O1682       O  0.50908554  0.34277758  0.16682690    -0.86800
O1683       O  0.98277413  0.31529443  0.25473580    -0.83900
C1684       C  0.95489011  0.31249470  0.24796973     0.96700
O1685       O  0.94174589  0.33257606  0.22434258    -0.83900
O1686       O  0.91862930  0.38885817  0.19815316    -0.86500
C1687       C  0.92710374  0.39586897  0.15503950     1.01200
O1688       O  0.95446446  0.39466403  0.14425158    -0.79300
O1689       O  0.01557735  0.39056926  0.15101279    -0.79500
C1690       C  0.51673165  0.36354931  0.13770460     1.01100
Cr1691     Cr  0.50835424  0.35224017  0.23832908     1.93700
Cr1692     Cr  0.94267615  0.37170013  0.25606222     1.93200
Cr1693     Cr  0.98392022  0.40953016  0.19236829     1.39100
O1694       O  0.97827535  0.37819009  0.23010107    -1.24500
O1695       O  0.89680221  0.02793222  0.04591567    -0.86800
O1696       O  0.87337791  0.49727904  0.46963563    -0.83800
C1697       C  0.87111915  0.47524066  0.44127118     0.96700
O1698       O  0.86879744  0.44839482  0.45722658    -0.83900
O1699       O  0.92295984  0.42777340  0.48783588    -0.86500
C1700       C  0.94696747  0.42804211  0.01166604     1.01200
O1701       O  0.94870279  0.44103241  0.05265434    -0.79300
O1702       O  0.93790573  0.00097393  0.03876810    -0.79500
C1703       C  0.92433352  0.02549748  0.03416903     1.01100
O1704       O  0.85534235  0.49652490  0.11060780    -0.86800
O1705       O  0.82784600  0.47021616  0.02269175    -0.83900
C1706       C  0.82504734  0.44233905  0.02948058     0.96700
O1707       O  0.84513461  0.42921046  0.05311647    -0.83900
O1708       O  0.90141343  0.40608555  0.07927518    -0.86500
C1709       C  0.90843353  0.41455515  0.12238591     1.01200
O1710       O  0.90725262  0.44191298  0.13317224    -0.79300
O1711       O  0.90314595  0.50301563  0.12641107    -0.79500
C1712       C  0.87612145  0.50416903  0.13972609     1.01100
Cr1713     Cr  0.86480058  0.49579559  0.03910257     1.93700
Cr1714     Cr  0.88425722  0.43013005  0.02137199     1.93200
Cr1715     Cr  0.92210865  0.47136758  0.08504582     1.39100
O1716       O  0.89075745  0.46572287  0.04732532    -1.24500
O1717       O  0.00984899  0.12488695  0.05780962    -0.86800
O1718       O  0.54050714  0.10145983  0.98152815    -0.83800
C1719       C  0.53806598  0.07393333  0.99326122     0.96700
O1720       O  0.51353637  0.06036853  0.48865324    -0.83900
O1721       O  0.95358962  0.04957978  0.47475866    -0.86500
C1722       C  0.94060626  0.05130854  0.01575860     1.01200
O1723       O  0.94033707  0.07531015  0.03959258    -0.79300
O1724       O  0.96095438  0.12946629  0.07021601    -0.79500
C1725       C  0.98780520  0.12714768  0.08617242     1.01100
O1726       O  0.98279183  0.17041170  0.50475276    -0.86800
O1727       O  0.50910228  0.14292179  0.41683991    -0.83900
C1728       C  0.51674578  0.12214764  0.38771684     0.96700
O1729       O  0.01559158  0.09512857  0.40102665    -0.83900
O1730       O  0.95447881  0.09103844  0.39426001    -0.86500
C1731       C  0.92711724  0.08984139  0.40504499     1.01200
O1732       O  0.91864227  0.09685681  0.44815708    -0.79300
O1733       O  0.94176680  0.15313338  0.97434699    -0.79500
C1734       C  0.95490876  0.17321479  0.49797831     1.01100
Cr1735     Cr  0.50836981  0.13346182  0.98834242     1.93700
Cr1736     Cr  0.98393245  0.07617210  0.44237991     1.93200
Cr1737     Cr  0.94268902  0.11401088  0.00606866     1.39100
O1738       O  0.97828889  0.10751430  0.48011239    -1.24500
O1739       O  0.87338759  0.98843249  0.21963485    -0.86800
O1740       O  0.89680641  0.45778028  0.29592003    -0.83800
C1741       C  0.92433683  0.46021280  0.28417370     0.96700
O1742       O  0.93791159  0.48473441  0.28877953    -0.83900
O1743       O  0.94871098  0.04467355  0.30266415    -0.86500
C1744       C  0.94697750  0.05765809  0.26167170     1.01200
O1745       O  0.92297045  0.05792806  0.23784188    -0.79300
O1746       O  0.86880691  0.03731648  0.20723025    -0.79500
C1747       C  0.87112585  0.01047059  0.19127232     1.01100
O1748       O  0.82785601  0.01549555  0.27269192    -0.86800
O1749       O  0.85534454  0.48918823  0.36060531    -0.83900
C1750       C  0.87612084  0.48154310  0.38972701     0.96700
O1751       O  0.90314707  0.48269870  0.37642036    -0.83900
O1752       O  0.90725673  0.04380158  0.38317863    -0.86500
C1753       C  0.90844350  0.07115818  0.37239108     1.01200
O1754       O  0.90142568  0.07962638  0.32927951    -0.79300
O1755       O  0.84514338  0.05650503  0.30311250    -0.79500
C1756       C  0.82505858  0.04337325  0.27947356     1.01100
Cr1757     Cr  0.86480759  0.48991683  0.28910272     1.93700
Cr1758     Cr  0.92211353  0.01434324  0.33505537     1.93200
Cr1759     Cr  0.88426761  0.05558048  0.27137560     1.39100
O1760       O  0.89076428  0.01998849  0.29733091    -1.24500
O1761       O  0.72032929  0.35145720  0.48157177    -0.86800
O1762       O  0.75098881  0.37488288  0.55784471    -0.83800
C1763       C  0.77303277  0.37714043  0.58620431     0.96700
O1764       O  0.79988324  0.37946167  0.57024374    -0.83900
O1765       O  0.82049958  0.32530552  0.53961755    -0.86500
C1766       C  0.82023015  0.30130381  0.51578403     1.01200
O1767       O  0.80724589  0.29957498  0.97478695    -0.79300
O1768       O  0.74730103  0.31036583  0.98869542    -0.79500
C1769       C  0.72277125  0.32393096  0.49330719     1.01100
O1770       O  0.75173136  0.39291769  0.91687403    -0.86800
O1771       O  0.77804589  0.42040832  0.00478209    -0.83900
C1772       C  0.80592848  0.42321177  0.99799819     0.96700
O1773       O  0.81907028  0.40312798  0.47436923    -0.83900
O1774       O  0.84219304  0.34685020  0.94817730    -0.86500
C1775       C  0.83371755  0.33983357  0.90506713     1.01200
O1776       O  0.80635546  0.34102979  0.89428642    -0.79300
O1777       O  0.74524169  0.34512438  0.90106450    -0.79500
C1778       C  0.74408709  0.37214321  0.88775274     1.01100
Cr1779     Cr  0.75246659  0.38345853  0.98837779     1.93700
Cr1780     Cr  0.81814750  0.36400565  0.50609288     1.93200
Cr1781     Cr  0.77690244  0.32616725  0.94241342     1.39100
O1782       O  0.78254741  0.35751034  0.98014223    -1.24500
O1783       O  0.86403628  0.20777547  0.79592912    -0.86800
O1784       O  0.88745486  0.23842936  0.71964453    -0.83800
C1785       C  0.88971379  0.26046763  0.69128190     0.96700
O1786       O  0.89202867  0.28731380  0.70723924    -0.83900
O1787       O  0.83786398  0.30791850  0.73786173    -0.86500
C1788       C  0.81385811  0.30764923  0.76169771     1.01200
O1789       O  0.81212714  0.29466715  0.80269186    -0.79300
O1790       O  0.82292952  0.23472964  0.78879957    -0.79500
C1791       C  0.83650492  0.21020814  0.78418894     1.01100
O1792       O  0.90549728  0.23918547  0.86061307    -0.86800
O1793       O  0.93298380  0.26549556  0.77269494    -0.83900
C1794       C  0.93577813  0.29337413  0.77947158     0.96700
O1795       O  0.91569303  0.30650524  0.80311459    -0.83900
O1796       O  0.85940828  0.32962038  0.82929605    -0.86500
C1797       C  0.85239282  0.32115167  0.87240923     1.01200
O1798       O  0.85358353  0.29379501  0.88319650    -0.79300
O1799       O  0.85769559  0.23269149  0.87643140    -0.79500
C1800       C  0.88472125  0.23153912  0.88973663     1.01100
Cr1801     Cr  0.89603420  0.23991382  0.78911106     1.93700
Cr1802     Cr  0.87656755  0.30557622  0.77138754     1.93200
Cr1803     Cr  0.83872717  0.26433710  0.83507443     1.39100
O1804       O  0.87007528  0.26998400  0.79734417    -1.24500
O1805       O  0.75100102  0.11081749  0.80781873    -0.86800
O1806       O  0.72034257  0.13423814  0.73153885    -0.83800
C1807       C  0.72278070  0.16176310  0.74327910     0.96700
O1808       O  0.74730872  0.17533186  0.73866788    -0.83900
O1809       O  0.80725378  0.18612601  0.72477356    -0.86500
C1810       C  0.82023510  0.18439781  0.76577287     1.01200
O1811       O  0.82050649  0.16039576  0.78960281    -0.79300
O1812       O  0.79989543  0.10623911  0.82021977    -0.79500
C1813       C  0.77304454  0.10855622  0.83617945     1.01100
O1814       O  0.77806102  0.06529397  0.75475445    -0.86800
O1815       O  0.75175031  0.09277750  0.66684848    -0.83900
C1816       C  0.74410522  0.11354943  0.63772618     0.96700
O1817       O  0.74525952  0.14056978  0.65103416    -0.83900
O1818       O  0.80637216  0.14466869  0.64426778    -0.86500
C1819       C  0.83373330  0.14586782  0.65505188     1.01200
O1820       O  0.84220752  0.13885311  0.69816275    -0.79300
O1821       O  0.81908591  0.08257430  0.72434708    -0.79500
C1822       C  0.80594398  0.06249313  0.74797810     1.01100
Cr1823     Cr  0.75248151  0.10224038  0.73835029     1.93700
Cr1824     Cr  0.77691504  0.15953104  0.69239063     1.93200
Cr1825     Cr  0.81816030  0.12169632  0.75607312     1.39100
O1826       O  0.78256069  0.12818957  0.73011886    -1.24500
O1827       O  0.88746151  0.24727588  0.96964506    -0.86800
O1828       O  0.86403554  0.27792819  0.54593082    -0.83800
C1829       C  0.83650394  0.27549333  0.53419018     0.96700
O1830       O  0.82293280  0.25096968  0.53879054    -0.83900
O1831       O  0.81213714  0.19102894  0.55267538    -0.86500
C1832       C  0.81387154  0.17804126  0.51168384     1.01200
O1833       O  0.83787867  0.17777253  0.98785062    -0.79300
O1834       O  0.89204139  0.19839141  0.95723423    -0.79500
C1835       C  0.88972167  0.22523747  0.94127999     1.01100
O1836       O  0.93299332  0.22021476  0.52269561    -0.86800
O1837       O  0.90549715  0.24652146  0.61061564    -0.83900
C1838       C  0.88471799  0.25416549  0.63973672     0.96700
O1839       O  0.85769354  0.25301107  0.62642642    -0.83900
O1840       O  0.85359075  0.19190843  0.63318546    -0.86500
C1841       C  0.85240690  0.16455124  0.62239779     1.01200
O1842       O  0.85942668  0.15608174  0.57928571    -0.79300
O1843       O  0.91570689  0.17920583  0.55311402    -0.79500
C1844       C  0.93579221  0.19233704  0.52947504     1.01100
Cr1845     Cr  0.89603823  0.24579238  0.53911186     1.93700
Cr1846     Cr  0.83873186  0.22136323  0.58506353     1.93200
Cr1847     Cr  0.87658244  0.18012677  0.52138028     1.39100
O1848       O  0.87008255  0.21571929  0.54733710    -1.24500
O1849       O  0.79050394  0.13423685  0.48153904    -0.86800
O1850       O  0.75984774  0.11080991  0.55781863    -0.83800
C1851       C  0.73780429  0.10854901  0.58618174     0.96700
O1852       O  0.71095382  0.10622666  0.57022568    -0.83900
O1853       O  0.69033084  0.16038248  0.53961508    -0.86500
C1854       C  0.69060026  0.18438570  0.51578758     1.01200
O1855       O  0.70358374  0.18611601  0.97478825    -0.79300
O1856       O  0.76353158  0.17532762  0.98867549    -0.79500
C1857       C  0.78806251  0.16176257  0.49327765     1.01100
O1858       O  0.75910081  0.09277604  0.91684568    -0.86800
O1859       O  0.73279236  0.06528351  0.00475517    -0.83900
C1860       C  0.70490990  0.06247869  0.99797734     0.96700
O1861       O  0.69176670  0.08256092  0.47435147    -0.83900
O1862       O  0.66863722  0.13883741  0.94817532    -0.86500
C1863       C  0.67711134  0.14585461  0.90506464     1.01200
O1864       O  0.70447299  0.14466031  0.89427928    -0.79300
O1865       O  0.76558573  0.14057000  0.90103980    -0.79500
C1866       C  0.76674311  0.11355099  0.88772601     1.01100
Cr1867     Cr  0.75836815  0.10223477  0.98835014     1.93700
Cr1868     Cr  0.69268616  0.12168273  0.50608227     1.93200
Cr1869     Cr  0.73392697  0.15952513  0.94240079     1.39100
O1870       O  0.72828548  0.12818154  0.98012600    -1.24500
O1871       O  0.64680001  0.27791613  0.79596128    -0.86800
O1872       O  0.62337927  0.24726544  0.71967079    -0.83800
C1873       C  0.62111688  0.22522772  0.69130473     0.96700
O1874       O  0.61880046  0.19838138  0.70725785    -0.83900
O1875       O  0.67296383  0.17776714  0.73786649    -0.86500
C1876       C  0.69697129  0.17803694  0.76169600     1.01200
O1877       O  0.69870416  0.19101964  0.80269122    -0.79300
O1878       O  0.68790553  0.25096061  0.78881752    -0.79500
C1879       C  0.67433092  0.27548311  0.78421643     1.01100
O1880       O  0.60533862  0.24650628  0.86064126    -0.86800
O1881       O  0.57784899  0.22020318  0.77272212    -0.83900
C1882       C  0.57505248  0.19232505  0.77949391     0.96700
O1883       O  0.59513594  0.17919246  0.80313461    -0.83900
O1884       O  0.65141832  0.15606871  0.82930085    -0.86500
C1885       C  0.65843552  0.16453673  0.87241382     1.01200
O1886       O  0.65724772  0.19189317  0.88320472    -0.79300
O1887       O  0.65314122  0.25299519  0.87645481    -0.79500
C1888       C  0.62611553  0.25414997  0.88976295     1.01100
Cr1889     Cr  0.61480071  0.24578011  0.78913859     1.93700
Cr1890     Cr  0.63426070  0.18011579  0.77139999     1.93200
Cr1891     Cr  0.67210661  0.22135077  0.83508665     1.39100
O1892       O  0.64075760  0.21570747  0.79736043    -1.24500
O1893       O  0.75983129  0.37487307  0.80784364    -0.86800
O1894       O  0.79048927  0.35144953  0.73155767    -0.83800
C1895       C  0.78804962  0.32392431  0.74329129     0.96700
O1896       O  0.76352127  0.31035664  0.73868102    -0.83900
O1897       O  0.70357750  0.29956604  0.72479652    -0.86500
C1898       C  0.69059955  0.30129414  0.76580043     1.01200
O1899       O  0.69032822  0.32529687  0.78963254    -0.79300
O1900       O  0.71093745  0.37945777  0.82024713    -0.79500
C1901       C  0.73778748  0.37713772  0.83620607     1.01100
O1902       O  0.73277453  0.42039603  0.75477807    -0.86800
O1903       O  0.75908693  0.39291088  0.66687473    -0.83900
C1904       C  0.76673126  0.37213895  0.63774863     0.96700
O1905       O  0.76557298  0.34511832  0.65105141    -0.83900
O1906       O  0.70445921  0.34102354  0.64429435    -0.86500
C1907       C  0.67709818  0.33982332  0.65508294     1.01200
O1908       O  0.66862523  0.34683602  0.69819678    -0.79300
O1909       O  0.69175007  0.40311473  0.72437065    -0.79500
C1910       C  0.70489284  0.42319891  0.74799430     1.01100
Cr1911     Cr  0.75835295  0.38344866  0.73837494     1.93700
Cr1912     Cr  0.73391629  0.32615925  0.69241052     1.93200
Cr1913     Cr  0.69267365  0.36399560  0.75610241     1.39100
O1914       O  0.72827289  0.35750068  0.73014387    -1.21300
O1915       O  0.62337353  0.23841514  0.96966964    -0.86800
O1916       O  0.64679611  0.20776297  0.54595024    -0.83800
C1917       C  0.67432752  0.21019662  0.53420499     0.96700
O1918       O  0.68789956  0.23472017  0.53880810    -0.83900
O1919       O  0.69869663  0.29466241  0.55270230    -0.86500
C1920       C  0.69696252  0.30765184  0.51171320     1.01200
O1921       O  0.67295672  0.30791936  0.98788174    -0.79300
O1922       O  0.61879801  0.28729985  0.95726139    -0.79500
C1923       C  0.62111566  0.26045311  0.94130641     1.01100
O1924       O  0.57783977  0.26547870  0.52271735    -0.86800
O1925       O  0.60533337  0.23917350  0.61064087    -0.83900
C1926       C  0.62611213  0.23152926  0.63975949     0.96700
O1927       O  0.65313661  0.23268115  0.62644569    -0.83900
O1928       O  0.65724097  0.29378299  0.63321275    -0.86500
C1929       C  0.65842441  0.32114033  0.62242851     1.01200
O1930       O  0.65140408  0.32961032  0.57931901    -0.79300
O1931       O  0.59512386  0.30648929  0.55313503    -0.79500
C1932       C  0.57504206  0.29335790  0.52948863     1.01100
Cr1933     Cr  0.61479414  0.23990047  0.53913579     1.93700
Cr1934     Cr  0.67210014  0.26432804  0.58508614     1.93200
Cr1935     Cr  0.63425175  0.30556576  0.52140897     1.39100
O1936       O  0.64075004  0.26997322  0.54736268    -1.24500
O1937       O  0.97034562  0.10145944  0.73152719    -0.86800
O1938       O  0.50100266  0.12488178  0.80781042    -0.83800
C1939       C  0.52304619  0.12714294  0.83617145     0.96700
O1940       O  0.54989688  0.12945971  0.82021305    -0.83900
O1941       O  0.57050623  0.07530272  0.78958834    -0.86500
C1942       C  0.57023544  0.05130074  0.76575495     1.01200
O1943       O  0.55725897  0.04957421  0.72475180    -0.79300
O1944       O  0.99731482  0.06036638  0.73864716    -0.79500
C1945       C  0.97278573  0.07393407  0.74326040     1.01100
O1946       O  0.50174996  0.14292167  0.66684128    -0.86800
O1947       O  0.52805890  0.17040575  0.75475254    -0.83900
C1948       C  0.55594275  0.17320690  0.74798486     0.96700
O1949       O  0.56908802  0.15312738  0.72435091    -0.83900
O1950       O  0.59221015  0.09684607  0.69815259    -0.86500
C1951       C  0.58373619  0.08983209  0.65504044     1.01200
O1952       O  0.55637542  0.09103521  0.64425521    -0.79300
O1953       O  0.49526235  0.09512928  0.65102165    -0.79500
C1954       C  0.49410612  0.12214920  0.63771653     1.01100
Cr1955     Cr  0.50248219  0.13345870  0.73834260     1.93700
Cr1956     Cr  0.56816200  0.11400308  0.75606548     1.93200
Cr1957     Cr  0.52691954  0.07616958  0.69237372     1.39100
O1958       O  0.53256300  0.10751062  0.73010786    -1.24500
O1959       O  0.61403639  0.45776402  0.54590775    -0.86800
O1960       O  0.63745880  0.98841632  0.96962594    -0.83800
C1961       C  0.63971844  0.01045486  0.94126420     0.96700
O1962       O  0.64204377  0.03730007  0.95722247    -0.83900
O1963       O  0.58788268  0.05792363  0.98783777    -0.86500
C1964       C  0.56387486  0.05765456  0.51166705     1.01200
O1965       O  0.56213799  0.04466486  0.55265600    -0.79300
O1966       O  0.57293405  0.48472327  0.53876595    -0.79500
C1967       C  0.58650609  0.46019907  0.53416228     1.01100
O1968       O  0.65549828  0.48916981  0.61059571    -0.86800
O1969       O  0.68299383  0.01547635  0.52267700    -0.83900
C1970       C  0.68579363  0.04335338  0.52946678     0.96700
O1971       O  0.66570796  0.05648324  0.55310933    -0.83900
O1972       O  0.60942929  0.07961248  0.57927580    -0.86500
C1973       C  0.60240725  0.07114435  0.62238580     1.01200
O1974       O  0.60358709  0.04378672  0.63317089    -0.79300
O1975       O  0.60769424  0.98268359  0.62640688    -0.79500
C1976       C  0.63471906  0.48152822  0.63971740     1.01100
Cr1977     Cr  0.64603851  0.48989933  0.53909170     1.93700
Cr1978     Cr  0.62658506  0.05556589  0.52137011     1.93200
Cr1979     Cr  0.58873164  0.01433057  0.58504421     1.39100
O1980       O  0.62008330  0.01997366  0.54732144    -1.24500
O1981       O  0.50099109  0.36080778  0.55779919    -0.86800
O1982       O  0.97033460  0.38423529  0.48152360    -0.83800
C1983       C  0.97277542  0.41176122  0.49325866     0.96700
O1984       O  0.99730617  0.42532604  0.98865235    -0.83900
O1985       O  0.55725196  0.43611565  0.97474943    -0.86500
C1986       C  0.57023327  0.43438868  0.51574845     1.01200
O1987       O  0.57050163  0.41038742  0.53958092    -0.79300
O1988       O  0.54988590  0.35623371  0.57020506    -0.79500
C1989       C  0.52303428  0.35854990  0.58616101     1.01100
O1990       O  0.52804778  0.31528198  0.00473910    -0.86800
O1991       O  0.50173892  0.34277287  0.91682572    -0.83900
C1992       C  0.49409394  0.36354763  0.88770773     0.96700
O1993       O  0.49524910  0.39056631  0.90102208    -0.83900
O1994       O  0.55636128  0.39465429  0.89424975    -0.86500
C1995       C  0.58372260  0.39585411  0.90503160     1.01200
O1996       O  0.59219877  0.38883748  0.94814111    -0.79300
O1997       O  0.56907916  0.33255710  0.47434675    -0.79500
C1998       C  0.55593248  0.31247852  0.99797815     1.01100
Cr1999     Cr  0.50247132  0.35223258  0.98833098     1.93700
Cr2000     Cr  0.52690893  0.40952185  0.94237376     1.93200
Cr2001     Cr  0.56815239  0.37168501  0.50605759     1.39100
O2002       O  0.53255286  0.37817928  0.98010147    -1.24500
O2003       O  0.63745147  0.49726698  0.71962749    -0.86800
O2004       O  0.61403246  0.02792110  0.79591786    -0.83800
C2005       C  0.58650260  0.02548935  0.78417172     0.96700
O2006       O  0.57292678  0.00096807  0.78877604    -0.83900
O2007       O  0.56212643  0.44102812  0.80265067    -0.86500
C2008       C  0.56386203  0.42804089  0.76165880     1.01200
O2009       O  0.58787051  0.42776904  0.73782880    -0.79300
O2010       O  0.64203646  0.44838301  0.70722144    -0.79500
C2011       C  0.63971527  0.47522813  0.69126362     1.01100
O2012       O  0.68298100  0.47020241  0.77268216    -0.86800
O2013       O  0.65549208  0.49651061  0.86059496    -0.83900
C2014       C  0.63471570  0.50415425  0.88972047     0.96700
O2015       O  0.60768949  0.50300089  0.87641604    -0.83900
O2016       O  0.60357561  0.44189808  0.88316798    -0.86500
C2017       C  0.60239265  0.41454094  0.87237761     1.01200
O2018       O  0.60941056  0.40607374  0.82926434    -0.79300
O2019       O  0.66568953  0.42919986  0.80311538    -0.79500
C2020       C  0.68577743  0.44232640  0.77947680     1.01100
Cr2021     Cr  0.64603013  0.49578316  0.78909453     1.93700
Cr2022     Cr  0.58872223  0.47135782  0.83504749     1.93200
Cr2023     Cr  0.62657099  0.43011987  0.77136578     1.39100
O2024       O  0.62007201  0.46571238  0.79732116    -1.24500
O2025       O  0.54049275  0.38423849  0.73151517    -0.86800
O2026       O  0.00983497  0.36081557  0.80779787    -0.83800
C2027       C  0.98779187  0.35855453  0.83616183     0.96700
O2028       O  0.96094048  0.35624176  0.82020644    -0.83900
O2029       O  0.94033582  0.41040108  0.78958895    -0.86500
C2030       C  0.94060509  0.43440154  0.76575619     1.01200
O2031       O  0.95358121  0.43612695  0.72475042    -0.79300
O2032       O  0.51352524  0.42533338  0.73863925    -0.79500
C2033       C  0.53805369  0.41176501  0.74324880     1.01100
O2034       O  0.50908546  0.34277768  0.66682694    -0.86800
O2035       O  0.98277413  0.31529445  0.75473583    -0.83900
C2036       C  0.95489017  0.31249478  0.74796981     0.96700
O2037       O  0.94174595  0.33257614  0.72434247    -0.83900
O2038       O  0.91862928  0.38885833  0.69815312    -0.86500
C2039       C  0.92710370  0.39586899  0.65503942     1.01200
O2040       O  0.95446445  0.39466414  0.64425156    -0.79300
O2041       O  0.01557741  0.39056934  0.65101269    -0.79500
C2042       C  0.51673160  0.36354935  0.63770477     1.01100
Cr2043     Cr  0.50835422  0.35224017  0.73832908     1.93700
Cr2044     Cr  0.94267618  0.37170023  0.75606216     1.93200
Cr2045     Cr  0.98392025  0.40953024  0.69236833     1.39100
O2046       O  0.97827540  0.37819020  0.73010109    -1.24500
O2047       O  0.89680224  0.02793216  0.54591581    -0.86800
O2048       O  0.87337803  0.49727900  0.96963570    -0.83800
C2049       C  0.87111915  0.47524060  0.94127114     0.96700
O2050       O  0.86879748  0.44839478  0.95722667    -0.83900
O2051       O  0.92295979  0.42777328  0.98783595    -0.86500
C2052       C  0.94696749  0.42804219  0.51166622     1.01200
O2053       O  0.94870273  0.44103235  0.55265444    -0.79300
O2054       O  0.93790574  0.00097380  0.53876827    -0.79500
C2055       C  0.92433361  0.02549742  0.53416910     1.01100
O2056       O  0.85534235  0.49652487  0.61060799    -0.86800
O2057       O  0.82784592  0.47021613  0.52269198    -0.83900
C2058       C  0.82504739  0.44233896  0.52948056     0.96700
O2059       O  0.84513469  0.42921039  0.55311638    -0.83900
O2060       O  0.90141352  0.40608556  0.57927510    -0.86500
C2061       C  0.90843346  0.41455512  0.62238582     1.01200
O2062       O  0.90725257  0.44191289  0.63317235    -0.79300
O2063       O  0.90314592  0.50301561  0.62641097    -0.79500
C2064       C  0.87612143  0.50416890  0.63972613     1.01100
Cr2065     Cr  0.86480054  0.49579554  0.53910268     1.93700
Cr2066     Cr  0.88425724  0.43013003  0.52137186     1.93200
Cr2067     Cr  0.92210856  0.47136749  0.58504588     1.39100
O2068       O  0.89075742  0.46572279  0.54732526    -1.24500
O2069       O  0.00984898  0.12488687  0.55780965    -0.86800
O2070       O  0.54050718  0.10145984  0.48152821    -0.83800
C2071       C  0.53806590  0.07393320  0.49326140     0.96700
O2072       O  0.51353632  0.06036849  0.98865297    -0.83900
O2073       O  0.95358959  0.04957976  0.97475871    -0.86500
C2074       C  0.94060625  0.05130848  0.51575867     1.01200
O2075       O  0.94033710  0.07531006  0.53959265    -0.79300
O2076       O  0.96095434  0.12946628  0.57021604    -0.79500
C2077       C  0.98780514  0.12714767  0.58617249     1.01100
O2078       O  0.98279181  0.17041178  0.00475261    -0.86800
O2079       O  0.50910227  0.14292177  0.91683980    -0.83900
C2080       C  0.51674579  0.12214752  0.88771682     0.96700
O2081       O  0.01559161  0.09512857  0.90102659    -0.83900
O2082       O  0.95447886  0.09103848  0.89426010    -0.86500
C2083       C  0.92711714  0.08984141  0.90504522     1.01200
O2084       O  0.91864225  0.09685684  0.94815694    -0.79300
O2085       O  0.94176671  0.15313343  0.47434721    -0.79500
C2086       C  0.95490881  0.17321476  0.99797822     1.01100
Cr2087     Cr  0.50836977  0.13346174  0.48834251     1.93700
Cr2088     Cr  0.98393243  0.07617209  0.94237996     1.93200
Cr2089     Cr  0.94268898  0.11401084  0.50606876     1.39100
O2090       O  0.97828889  0.10751434  0.98011230    -1.24500
O2091       O  0.87338756  0.98843252  0.71963497    -0.86800
O2092       O  0.89680626  0.45778029  0.79592010    -0.83800
C2093       C  0.92433699  0.46021308  0.78417355     0.96700
O2094       O  0.93791146  0.48473438  0.78877931    -0.83900
O2095       O  0.94871108  0.04467360  0.80266396    -0.86500
C2096       C  0.94697770  0.05765802  0.76167211     1.01200
O2097       O  0.92297044  0.05792805  0.73784179    -0.79300
O2098       O  0.86880689  0.03731652  0.70723021    -0.79500
C2099       C  0.87112581  0.01047057  0.69127234     1.01100
O2100       O  0.82785602  0.01549557  0.77269198    -0.86800
O2101       O  0.85534447  0.48918831  0.86060545    -0.83900
C2102       C  0.87612078  0.48154307  0.88972712     0.96700
O2103       O  0.90314702  0.48269857  0.87642036    -0.83900
O2104       O  0.90725689  0.04380147  0.88317862    -0.86500
C2105       C  0.90844357  0.07115825  0.87239086     1.01200
O2106       O  0.90142566  0.07962635  0.82927961    -0.79300
O2107       O  0.84514342  0.05650505  0.80311270    -0.79500
C2108       C  0.82505871  0.04337334  0.77947357     1.01100
Cr2109     Cr  0.86480750  0.48991684  0.78910278     1.93700
Cr2110     Cr  0.92211361  0.01434319  0.83505534     1.93200
Cr2111     Cr  0.88426762  0.05558054  0.77137565     1.39100
O2112       O  0.89076424  0.01998853  0.79733108    -1.24500
O2113       O  0.72032934  0.85145710  0.98157173    -0.86800
O2114       O  0.75098886  0.87488289  0.05784457    -0.83800
C2115       C  0.77303291  0.87714048  0.08620444     0.96700
O2116       O  0.79988328  0.87946169  0.07024387    -0.83900
O2117       O  0.82049959  0.82530553  0.03961758    -0.86500
C2118       C  0.82023008  0.80130387  0.01578382     1.01200
O2119       O  0.80724583  0.79957485  0.47478678    -0.79300
O2120       O  0.74730105  0.81036584  0.48869552    -0.79500
C2121       C  0.72277098  0.82393133  0.99330708     1.01100
O2122       O  0.75173144  0.89291763  0.41687406    -0.86800
O2123       O  0.77804592  0.92040827  0.50478212    -0.83900
C2124       C  0.80592855  0.92321164  0.49799816     0.96700
O2125       O  0.81907039  0.90312808  0.97436931    -0.83900
O2126       O  0.84219307  0.84685016  0.44817715    -0.86500
C2127       C  0.83371752  0.83983354  0.40506724     1.01200
O2128       O  0.80635537  0.84102969  0.39428649    -0.79300
O2129       O  0.74524170  0.84512435  0.40106465    -0.79500
C2130       C  0.74408715  0.87214318  0.38775293     1.01100
Cr2131     Cr  0.75246661  0.88345850  0.48837782     1.93700
Cr2132     Cr  0.81814755  0.86400571  0.00609295     1.93200
Cr2133     Cr  0.77690245  0.82616715  0.44241355     1.39100
O2134       O  0.78254741  0.85751025  0.48014223    -1.24500
O2135       O  0.86403634  0.70777552  0.29592914    -0.86800
O2136       O  0.88745489  0.73842939  0.21964453    -0.83800
C2137       C  0.88971380  0.76046758  0.19128180     0.96700
O2138       O  0.89202860  0.78731385  0.20723921    -0.83900
O2139       O  0.83786387  0.80791850  0.23786177    -0.86500
C2140       C  0.81385824  0.80764931  0.26169727     1.01200
O2141       O  0.81212718  0.79466714  0.30269202    -0.79300
O2142       O  0.82292953  0.73472958  0.28879959    -0.79500
C2143       C  0.83650485  0.71020824  0.28418897     1.01100
O2144       O  0.90549727  0.73918551  0.36061308    -0.86800
O2145       O  0.93298376  0.76549553  0.27269526    -0.83900
C2146       C  0.93577811  0.79337403  0.27947157     0.96700
O2147       O  0.91569296  0.80650535  0.30311455    -0.83900
O2148       O  0.85940812  0.82962046  0.32929614    -0.86500
C2149       C  0.85239277  0.82115179  0.37240918     1.01200
O2150       O  0.85358358  0.79379505  0.38319658    -0.79300
O2151       O  0.85769560  0.73269149  0.37643152    -0.79500
C2152       C  0.88472122  0.73153918  0.38973675     1.01100
Cr2153     Cr  0.89603420  0.73991382  0.28911113     1.93700
Cr2154     Cr  0.87656746  0.80557626  0.27138758     1.93200
Cr2155     Cr  0.83872716  0.76433710  0.33507451     1.39100
O2156       O  0.87007526  0.76998399  0.29734428    -1.24500
O2157       O  0.75100101  0.61081749  0.30781886    -0.86800
O2158       O  0.72034256  0.63423820  0.23153899    -0.83800
C2159       C  0.72278048  0.66176283  0.24327903     0.96700
O2160       O  0.74730885  0.67533187  0.23866804    -0.83900
O2161       O  0.80725382  0.68612597  0.22477352    -0.86500
C2162       C  0.82023512  0.68439764  0.26577306     1.01200
O2163       O  0.82050640  0.66039576  0.28960287    -0.79300
O2164       O  0.79989540  0.60623891  0.32021994    -0.79500
C2165       C  0.77304443  0.60855624  0.33617947     1.01100
O2166       O  0.77806095  0.56529401  0.25475455    -0.86800
O2167       O  0.75175029  0.59277750  0.16684864    -0.83900
C2168       C  0.74410524  0.61354944  0.13772621     0.96700
O2169       O  0.74525952  0.64056978  0.15103425    -0.83900
O2170       O  0.80637212  0.64466866  0.14426775    -0.86500
C2171       C  0.83373337  0.64586775  0.15505191     1.01200
O2172       O  0.84220748  0.63885309  0.19816280    -0.79300
O2173       O  0.81908591  0.58257421  0.22434717    -0.79500
C2174       C  0.80594399  0.56249310  0.24797801     1.01100
Cr2175     Cr  0.75248148  0.60224040  0.23835040     1.93700
Cr2176     Cr  0.77691505  0.65953104  0.19239064     1.93200
Cr2177     Cr  0.81816024  0.62169625  0.25607324     1.39100
O2178       O  0.78256064  0.62818958  0.23011900    -1.24500
O2179       O  0.88746145  0.74727587  0.46964518    -0.86800
O2180       O  0.86403550  0.77792812  0.04593060    -0.83800
C2181       C  0.83650400  0.77549328  0.03419013     0.96700
O2182       O  0.82293277  0.75096962  0.03879048    -0.83900
O2183       O  0.81213719  0.69102898  0.05267536    -0.86500
C2184       C  0.81387135  0.67804133  0.01168385     1.01200
O2185       O  0.83787868  0.67777256  0.48785075    -0.79300
O2186       O  0.89204129  0.69839142  0.45723431    -0.79500
C2187       C  0.88972171  0.72523745  0.44128010     1.01100
O2188       O  0.93299318  0.72021467  0.02269570    -0.86800
O2189       O  0.90549712  0.74652138  0.11061557    -0.83900
C2190       C  0.88471807  0.75416543  0.13973679     0.96700
O2191       O  0.85769351  0.75301099  0.12642635    -0.83900
O2192       O  0.85359072  0.69190836  0.13318528    -0.86500
C2193       C  0.85240685  0.66455107  0.12239749     1.01200
O2194       O  0.85942652  0.65608165  0.07928553    -0.79300
O2195       O  0.91570680  0.67920564  0.05311393    -0.79500
C2196       C  0.93579205  0.69233689  0.02947501     1.01100
Cr2197     Cr  0.89603818  0.74579233  0.03911174     1.93700
Cr2198     Cr  0.83873193  0.72136318  0.08506344     1.93200
Cr2199     Cr  0.87658237  0.68012665  0.02138009     1.39100
O2200       O  0.87008256  0.71571919  0.04733695    -1.24500
O2201       O  0.79050391  0.63423700  0.98153889    -0.86800
O2202       O  0.75984772  0.61080998  0.05781849    -0.83800
C2203       C  0.73780428  0.60854900  0.08618177     0.96700
O2204       O  0.71095382  0.60622674  0.07022568    -0.83900
O2205       O  0.69033095  0.66038258  0.03961513    -0.86500
C2206       C  0.69060025  0.68438572  0.01578737     1.01200
O2207       O  0.70358370  0.68611594  0.47478837    -0.79300
O2208       O  0.76353155  0.67532750  0.48867570    -0.79500
C2209       C  0.78806252  0.66176264  0.99327770     1.01100
O2210       O  0.75910088  0.59277588  0.41684569    -0.86800
O2211       O  0.73279241  0.56528345  0.50475524    -0.83900
C2212       C  0.70490973  0.56247872  0.49797716     0.96700
O2213       O  0.69176662  0.58256097  0.97435149    -0.83900
O2214       O  0.66863716  0.63883731  0.44817523    -0.86500
C2215       C  0.67711124  0.64585455  0.40506478     1.01200
O2216       O  0.70447294  0.64466019  0.39427924    -0.79300
O2217       O  0.76558559  0.64056992  0.40103999    -0.79500
C2218       C  0.76674301  0.61355084  0.38772607     1.01100
Cr2219     Cr  0.75836818  0.60223462  0.48835023     1.93700
Cr2220     Cr  0.69268623  0.62168283  0.00608224     1.93200
Cr2221     Cr  0.73392692  0.65952503  0.44240091     1.39100
O2222       O  0.72828546  0.62818142  0.48012611    -1.24500
O2223       O  0.64679994  0.77791604  0.29596123    -0.86800
O2224       O  0.62337922  0.74726541  0.21967080    -0.83800
C2225       C  0.62111678  0.72522755  0.19130470     0.96700
O2226       O  0.61880030  0.69838134  0.20725791    -0.83900
O2227       O  0.67296378  0.67776723  0.23786646    -0.86500
C2228       C  0.69697155  0.67803707  0.26169646     1.01200
O2229       O  0.69870422  0.69101967  0.30269112    -0.79300
O2230       O  0.68790551  0.75096059  0.28881771    -0.79500
C2231       C  0.67433081  0.77548306  0.28421643     1.01100
O2232       O  0.60533856  0.74650624  0.36064140    -0.86800
O2233       O  0.57784887  0.72020317  0.27272217    -0.83900
C2234       C  0.57505256  0.69232484  0.27949398     0.96700
O2235       O  0.59513589  0.67919242  0.30313458    -0.83900
O2236       O  0.65141830  0.65606870  0.32930097    -0.86500
C2237       C  0.65843548  0.66453667  0.37241380     1.01200
O2238       O  0.65724769  0.69189322  0.38320475    -0.79300
O2239       O  0.65314114  0.75299526  0.37645488    -0.79500
C2240       C  0.62611557  0.75414993  0.38976311     1.01100
Cr2241     Cr  0.61480067  0.74578004  0.28913864     1.93700
Cr2242     Cr  0.63426072  0.68011575  0.27140010     1.93200
Cr2243     Cr  0.67210663  0.72135080  0.33508680     1.39100
O2244       O  0.64075760  0.71570744  0.29736059    -1.24500
O2245       O  0.75983136  0.87487314  0.30784381    -0.86800
O2246       O  0.79048930  0.85144966  0.23155770    -0.83800
C2247       C  0.78804941  0.82392413  0.24329143     0.96700
O2248       O  0.76352129  0.81035679  0.23868116    -0.83900
O2249       O  0.70357752  0.79956595  0.22479667    -0.86500
C2250       C  0.69059954  0.80129407  0.26580046     1.01200
O2251       O  0.69032820  0.82529682  0.28963261    -0.79300
O2252       O  0.71093751  0.87945769  0.32024712    -0.79500
C2253       C  0.73778754  0.87713771  0.33620604     1.01100
O2254       O  0.73277458  0.92039601  0.25477827    -0.86800
O2255       O  0.75908693  0.89291091  0.16687487    -0.83900
C2256       C  0.76673120  0.87213898  0.13774860     0.96700
O2257       O  0.76557307  0.84511836  0.15105152    -0.83900
O2258       O  0.70445931  0.84102353  0.14429437    -0.86500
C2259       C  0.67709825  0.83982326  0.15508285     1.01200
O2260       O  0.66862524  0.84683608  0.19819665    -0.79300
O2261       O  0.69175017  0.90311470  0.22437068    -0.79500
C2262       C  0.70489283  0.92319881  0.24799450     1.01100
Cr2263     Cr  0.75835294  0.88344866  0.23837508     1.93700
Cr2264     Cr  0.73391633  0.82615924  0.19241058     1.93200
Cr2265     Cr  0.69267366  0.86399558  0.25610232     1.39100
O2266       O  0.72827289  0.85750066  0.23014388    -1.21300
O2267       O  0.62337356  0.73841518  0.46966966    -0.86800
O2268       O  0.64679616  0.70776298  0.04595036    -0.83800
C2269       C  0.67432743  0.71019669  0.03420482     0.96700
O2270       O  0.68789965  0.73472015  0.03880819    -0.83900
O2271       O  0.69869672  0.79466242  0.05270221    -0.86500
C2272       C  0.69696279  0.80765167  0.01171383     1.01200
O2273       O  0.67295672  0.80791948  0.48788164    -0.79300
O2274       O  0.61879800  0.78729988  0.45726126    -0.79500
C2275       C  0.62111566  0.76045306  0.44130644     1.01100
O2276       O  0.57783981  0.76547869  0.02271759    -0.86800
O2277       O  0.60533339  0.73917351  0.11064105    -0.83900
C2278       C  0.62611208  0.73152923  0.13975962     0.96700
O2279       O  0.65313665  0.73268104  0.12644580    -0.83900
O2280       O  0.65724101  0.79378293  0.13321293    -0.86500
C2281       C  0.65842449  0.82114028  0.12242864     1.01200
O2282       O  0.65140415  0.82961018  0.07931902    -0.79300
O2283       O  0.59512390  0.80648927  0.05313519    -0.79500
C2284       C  0.57504211  0.79335790  0.02948884     1.01100
Cr2285     Cr  0.61479417  0.73990043  0.03913591     1.93700
Cr2286     Cr  0.67210025  0.76432800  0.08508636     1.93200
Cr2287     Cr  0.63425179  0.80556568  0.02140912     1.39100
O2288       O  0.64075011  0.76997315  0.04736289    -1.24500
O2289       O  0.97034556  0.60145946  0.23152731    -0.86800
O2290       O  0.50100266  0.62488171  0.30781046    -0.83800
C2291       C  0.52304613  0.62714287  0.33617163     0.96700
O2292       O  0.54989691  0.62945961  0.32021312    -0.83900
O2293       O  0.57050624  0.57530270  0.28958817    -0.86500
C2294       C  0.57023560  0.55130081  0.26575528     1.01200
O2295       O  0.55725888  0.54957418  0.22475165    -0.79300
O2296       O  0.99731473  0.56036640  0.23864735    -0.79500
C2297       C  0.97278588  0.57393373  0.24326078     1.01100
O2298       O  0.50174980  0.64292160  0.16684134    -0.86800
O2299       O  0.52805892  0.67040566  0.25475260    -0.83900
C2300       C  0.55594260  0.67320685  0.24798507     0.96700
O2301       O  0.56908801  0.65312725  0.22435084    -0.83900
O2302       O  0.59221020  0.59684596  0.19815249    -0.86500
C2303       C  0.58373608  0.58983193  0.15504031     1.01200
O2304       O  0.55637533  0.59103503  0.14425533    -0.79300
O2305       O  0.49526227  0.59512920  0.15102163    -0.79500
C2306       C  0.49410620  0.62214919  0.13771651     1.01100
Cr2307     Cr  0.50248212  0.63345863  0.23834272     1.93700
Cr2308     Cr  0.56816205  0.61400303  0.25606544     1.93200
Cr2309     Cr  0.52691944  0.57616956  0.19237384     1.39100
O2310       O  0.53256296  0.60751060  0.23010794    -1.24500
O2311       O  0.61403652  0.95776401  0.04590783    -0.86800
O2312       O  0.63745873  0.48841627  0.46962590    -0.83800
C2313       C  0.63971841  0.51045476  0.44126418     0.96700
O2314       O  0.64204369  0.53730003  0.45722259    -0.83900
O2315       O  0.58788270  0.55792358  0.48783789    -0.86500
C2316       C  0.56387464  0.55765437  0.01166740     1.01200
O2317       O  0.56213800  0.54466482  0.05265576    -0.79300
O2318       O  0.57293408  0.98472308  0.03876588    -0.79500
C2319       C  0.58650580  0.96019934  0.03416211     1.01100
O2320       O  0.65549828  0.98916983  0.11059574    -0.86800
O2321       O  0.68299383  0.51547642  0.02267691    -0.83900
C2322       C  0.68579360  0.54335352  0.02946680     0.96700
O2323       O  0.66570795  0.55648332  0.05310906    -0.83900
O2324       O  0.60942935  0.57961250  0.07927564    -0.86500
C2325       C  0.60240722  0.57114427  0.12238572     1.01200
O2326       O  0.60358718  0.54378675  0.13317075    -0.79300
O2327       O  0.60769432  0.48268353  0.12640678    -0.79500
C2328       C  0.63471908  0.98152823  0.13971725     1.01100
Cr2329     Cr  0.64603859  0.98989933  0.03909172     1.93700
Cr2330     Cr  0.62658506  0.55556587  0.02136994     1.93200
Cr2331     Cr  0.58873167  0.51433055  0.08504423     1.39100
O2332       O  0.62008328  0.51997362  0.04732123    -1.24500
O2333       O  0.50099114  0.86080787  0.05779909    -0.86800
O2334       O  0.97033451  0.88423529  0.98152348    -0.83800
C2335       C  0.97277542  0.91176144  0.99325855     0.96700
O2336       O  0.99730623  0.92532613  0.48865220    -0.83900
O2337       O  0.55725200  0.93611574  0.47474940    -0.86500
C2338       C  0.57023355  0.93438833  0.01574901     1.01200
O2339       O  0.57050168  0.91038749  0.03958093    -0.79300
O2340       O  0.54988597  0.85623376  0.07020496    -0.79500
C2341       C  0.52303429  0.85855002  0.08616102     1.01100
O2342       O  0.52804785  0.81528191  0.50473911    -0.86800
O2343       O  0.50173896  0.84277288  0.41682579    -0.83900
C2344       C  0.49409399  0.86354760  0.38770764     0.96700
O2345       O  0.49524914  0.89056631  0.40102212    -0.83900
O2346       O  0.55636127  0.89465428  0.39424977    -0.86500
C2347       C  0.58372262  0.89585413  0.40503165     1.01200
O2348       O  0.59219881  0.88883755  0.44814105    -0.79300
O2349       O  0.56907925  0.83255713  0.97434663    -0.79500
C2350       C  0.55593273  0.81247857  0.49797805     1.01100
Cr2351     Cr  0.50247148  0.85223256  0.48833101     1.93700
Cr2352     Cr  0.52690893  0.90952190  0.44237373     1.93200
Cr2353     Cr  0.56815249  0.87168502  0.00605755     1.39100
O2354       O  0.53255297  0.87817938  0.48010161    -1.24500
O2355       O  0.63745153  0.99726704  0.21962733    -0.86800
O2356       O  0.61403262  0.52792110  0.29591780    -0.83800
C2357       C  0.58650243  0.52548923  0.28417164     0.96700
O2358       O  0.57292693  0.50096806  0.28877599    -0.83900
O2359       O  0.56212647  0.94102821  0.30265063    -0.86500
C2360       C  0.56386222  0.92804087  0.26165871     1.01200
O2361       O  0.58787065  0.92776905  0.23782890    -0.79300
O2362       O  0.64203655  0.94838308  0.20722139    -0.79500
C2363       C  0.63971527  0.97522832  0.19126367     1.01100
O2364       O  0.68298111  0.97020239  0.27268209    -0.86800
O2365       O  0.65549215  0.99651064  0.36059499    -0.83900
C2366       C  0.63471567  0.00415426  0.38972047     0.96700
O2367       O  0.60768954  0.00300091  0.37641597    -0.83900
O2368       O  0.60357559  0.94189816  0.38316801    -0.86500
C2369       C  0.60239260  0.91454098  0.37237745     1.01200
O2370       O  0.60941059  0.90607385  0.32926429    -0.79300
O2371       O  0.66568953  0.92919996  0.30311545    -0.79500
C2372       C  0.68577747  0.94232644  0.27947682     1.01100
Cr2373     Cr  0.64603020  0.99578320  0.28909450     1.93700
Cr2374     Cr  0.58872232  0.97135784  0.33504739     1.93200
Cr2375     Cr  0.62657114  0.93011991  0.27136573     1.39100
O2376       O  0.62007213  0.96571239  0.29732105    -1.24500
O2377       O  0.54049274  0.88423847  0.23151509    -0.86800
O2378       O  0.00983504  0.86081550  0.30779788    -0.83800
C2379       C  0.98779180  0.85855448  0.33616191     0.96700
O2380       O  0.96094055  0.85624170  0.32020638    -0.83900
O2381       O  0.94033576  0.91040090  0.28958904    -0.86500
C2382       C  0.94060540  0.93440192  0.26575537     1.01200
O2383       O  0.95358124  0.93612692  0.22475065    -0.79300
O2384       O  0.51352525  0.92533328  0.23863935    -0.79500
C2385       C  0.53805365  0.91176506  0.24324879     1.01100
O2386       O  0.50908549  0.84277764  0.16682688    -0.86800
O2387       O  0.98277413  0.81529444  0.25473583    -0.83900
C2388       C  0.95489008  0.81249475  0.24796971     0.96700
O2389       O  0.94174595  0.83257606  0.22434251    -0.83900
O2390       O  0.91862934  0.88885816  0.19815310    -0.86500
C2391       C  0.92710373  0.89586904  0.15503956     1.01200
O2392       O  0.95446452  0.89466422  0.14425161    -0.79300
O2393       O  0.01557740  0.89056931  0.15101277    -0.79500
C2394       C  0.51673162  0.86354935  0.13770458     1.01100
Cr2395     Cr  0.50835425  0.85224018  0.23832906     1.93700
Cr2396     Cr  0.94267617  0.87170016  0.25606217     1.93200
Cr2397     Cr  0.98392030  0.90953021  0.19236835     1.39100
O2398       O  0.97827537  0.87819015  0.23010111    -1.24500
O2399       O  0.89680218  0.52793225  0.04591576    -0.86800
O2400       O  0.87337803  0.99727900  0.46963564    -0.83800
C2401       C  0.87111912  0.97524063  0.44127118     0.96700
O2402       O  0.86879744  0.94839480  0.45722660    -0.83900
O2403       O  0.92295980  0.92777337  0.48783592    -0.86500
C2404       C  0.94696734  0.92804212  0.01166593     1.01200
O2405       O  0.94870273  0.94103244  0.05265442    -0.79300
O2406       O  0.93790573  0.50097396  0.03876805    -0.79500
C2407       C  0.92433372  0.52549740  0.03416898     1.01100
O2408       O  0.85534237  0.99652487  0.11060786    -0.86800
O2409       O  0.82784592  0.97021610  0.02269179    -0.83900
C2410       C  0.82504725  0.94233913  0.02948052     0.96700
O2411       O  0.84513461  0.92921043  0.05311655    -0.83900
O2412       O  0.90141343  0.90608554  0.07927522    -0.86500
C2413       C  0.90843350  0.91455512  0.12238585     1.01200
O2414       O  0.90725266  0.94191299  0.13317223    -0.79300
O2415       O  0.90314596  0.00301560  0.12641102    -0.79500
C2416       C  0.87612158  0.00416901  0.13972609     1.01100
Cr2417     Cr  0.86480054  0.99579557  0.03910257     1.93700
Cr2418     Cr  0.88425721  0.93013005  0.02137200     1.93200
Cr2419     Cr  0.92210860  0.97136760  0.08504580     1.39100
O2420       O  0.89075740  0.96572287  0.04732532    -1.24500
O2421       O  0.00984896  0.62488690  0.05780961    -0.86800
O2422       O  0.54050715  0.60145976  0.98152817    -0.83800
C2423       C  0.53806616  0.57393346  0.99326112     0.96700
O2424       O  0.51353622  0.56036854  0.48865321    -0.83900
O2425       O  0.95358966  0.54957980  0.47475871    -0.86500
C2426       C  0.94060618  0.55130862  0.01575883     1.01200
O2427       O  0.94033716  0.57531008  0.03959256    -0.79300
O2428       O  0.96095436  0.62946629  0.07021598    -0.79500
C2429       C  0.98780503  0.62714766  0.08617244     1.01100
O2430       O  0.98279187  0.67041176  0.50475277    -0.86800
O2431       O  0.50910232  0.64292177  0.41683994    -0.83900
C2432       C  0.51674575  0.62214748  0.38771678     0.96700
O2433       O  0.01559163  0.59512856  0.40102668    -0.83900
O2434       O  0.95447886  0.59103843  0.39425998    -0.86500
C2435       C  0.92711716  0.58984142  0.40504514     1.01200
O2436       O  0.91864235  0.59685686  0.44815705    -0.79300
O2437       O  0.94176677  0.65313333  0.97434702    -0.79500
C2438       C  0.95490863  0.67321478  0.49797820     1.01100
Cr2439     Cr  0.50836983  0.63346176  0.98834242     1.93700
Cr2440     Cr  0.98393249  0.57617210  0.44237996     1.93200
Cr2441     Cr  0.94268906  0.61401083  0.00606869     1.39100
O2442       O  0.97828899  0.60751433  0.48011237    -1.24500
O2443       O  0.87338756  0.48843248  0.21963482    -0.86800
O2444       O  0.89680648  0.95778027  0.29592007    -0.83800
C2445       C  0.92433654  0.96021265  0.28417378     0.96700
O2446       O  0.93791158  0.98473451  0.28877947    -0.83900
O2447       O  0.94871095  0.54467353  0.30266418    -0.86500
C2448       C  0.94697748  0.55765807  0.26167172     1.01200
O2449       O  0.92297048  0.55792804  0.23784186    -0.79300
O2450       O  0.86880700  0.53731649  0.20723027    -0.79500
C2451       C  0.87112574  0.51047046  0.19127232     1.01100
O2452       O  0.82785598  0.51549558  0.27269200    -0.86800
O2453       O  0.85534453  0.98918821  0.36060527    -0.83900
C2454       C  0.87612094  0.98154305  0.38972704     0.96700
O2455       O  0.90314707  0.98269870  0.37642043    -0.83900
O2456       O  0.90725678  0.54380157  0.38317861    -0.86500
C2457       C  0.90844347  0.57115830  0.37239096     1.01200
O2458       O  0.90142576  0.57962640  0.32927955    -0.79300
O2459       O  0.84514344  0.55650502  0.30311256    -0.79500
C2460       C  0.82505864  0.54337321  0.27947352     1.01100
Cr2461     Cr  0.86480758  0.98991683  0.28910273     1.93700
Cr2462     Cr  0.92211352  0.51434322  0.33505531     1.93200
Cr2463     Cr  0.88426766  0.55558051  0.27137558     1.39100
O2464       O  0.89076427  0.51998851  0.29733089    -1.24500
O2465       O  0.72032932  0.85145714  0.48157179    -0.86800
O2466       O  0.75098878  0.87488287  0.55784470    -0.83800
C2467       C  0.77303288  0.87714047  0.58620430     0.96700
O2468       O  0.79988323  0.87946165  0.57024375    -0.83900
O2469       O  0.82049959  0.82530553  0.53961754    -0.86500
C2470       C  0.82023014  0.80130385  0.51578407     1.01200
O2471       O  0.80724574  0.79957495  0.97478685    -0.79300
O2472       O  0.74730099  0.81036581  0.98869549    -0.79500
C2473       C  0.72277109  0.82393109  0.49330711     1.01100
O2474       O  0.75173149  0.89291767  0.91687401    -0.86800
O2475       O  0.77804593  0.92040826  0.00478209    -0.83900
C2476       C  0.80592864  0.92321167  0.99799809     0.96700
O2477       O  0.81907030  0.90312799  0.47436925    -0.83900
O2478       O  0.84219304  0.84685020  0.94817725    -0.86500
C2479       C  0.83371748  0.83983354  0.90506712     1.01200
O2480       O  0.80635541  0.84102976  0.89428647    -0.79300
O2481       O  0.74524165  0.84512439  0.90106454    -0.79500
C2482       C  0.74408713  0.87214322  0.88775274     1.01100
Cr2483     Cr  0.75246664  0.88345854  0.98837778     1.93700
Cr2484     Cr  0.81814756  0.86400565  0.50609290     1.93200
Cr2485     Cr  0.77690236  0.82616725  0.94241347     1.39100
O2486       O  0.78254739  0.85751031  0.98014226    -1.24500
O2487       O  0.86403632  0.70777549  0.79592915    -0.86800
O2488       O  0.88745477  0.73842943  0.71964459    -0.83800
C2489       C  0.88971377  0.76046770  0.69128193     0.96700
O2490       O  0.89202861  0.78731387  0.70723919    -0.83900
O2491       O  0.83786386  0.80791848  0.73786172    -0.86500
C2492       C  0.81385828  0.80764932  0.76169742     1.01200
O2493       O  0.81212713  0.79466712  0.80269192    -0.79300
O2494       O  0.82292950  0.73472958  0.78879949    -0.79500
C2495       C  0.83650477  0.71020825  0.78418887     1.01100
O2496       O  0.90549728  0.73918557  0.86061299    -0.86800
O2497       O  0.93298379  0.76549560  0.77269485    -0.83900
C2498       C  0.93577812  0.79337422  0.77947164     0.96700
O2499       O  0.91569304  0.80650530  0.80311460    -0.83900
O2500       O  0.85940817  0.82962038  0.82929604    -0.86500
C2501       C  0.85239279  0.82115166  0.87240925     1.01200
O2502       O  0.85358355  0.79379501  0.88319653    -0.79300
O2503       O  0.85769560  0.73269148  0.87643144    -0.79500
C2504       C  0.88472127  0.73153913  0.88973658     1.01100
Cr2505     Cr  0.89603421  0.73991387  0.78911103     1.93700
Cr2506     Cr  0.87656751  0.80557627  0.77138753     1.93200
Cr2507     Cr  0.83872716  0.76433707  0.83507439     1.39100
O2508       O  0.87007531  0.76998404  0.79734420    -1.24500
O2509       O  0.75100102  0.61081748  0.80781868    -0.86800
O2510       O  0.72034256  0.63423816  0.73153887    -0.83800
C2511       C  0.72278058  0.66176300  0.74327905     0.96700
O2512       O  0.74730877  0.67533187  0.73866796    -0.83900
O2513       O  0.80725380  0.68612604  0.72477344    -0.86500
C2514       C  0.82023512  0.68439773  0.76577311     1.01200
O2515       O  0.82050639  0.66039585  0.78960281    -0.79300
O2516       O  0.79989543  0.60623911  0.82021979    -0.79500
C2517       C  0.77304454  0.60855627  0.83617943     1.01100
O2518       O  0.77806097  0.56529397  0.75475444    -0.86800
O2519       O  0.75175040  0.59277750  0.66684846    -0.83900
C2520       C  0.74410520  0.61354944  0.63772617     0.96700
O2521       O  0.74525962  0.64056978  0.65103413    -0.83900
O2522       O  0.80637217  0.64466867  0.64426767    -0.86500
C2523       C  0.83373339  0.64586785  0.65505199     1.01200
O2524       O  0.84220748  0.63885317  0.69816277    -0.79300
O2525       O  0.81908593  0.58257421  0.72434707    -0.79500
C2526       C  0.80594412  0.56249316  0.74797796     1.01100
Cr2527     Cr  0.75248151  0.60224037  0.73835025     1.93700
Cr2528     Cr  0.77691508  0.65953105  0.69239059     1.93200
Cr2529     Cr  0.81816026  0.62169633  0.75607312     1.39100
O2530       O  0.78256066  0.62818957  0.73011882    -1.24500
O2531       O  0.88746146  0.74727584  0.96964504    -0.86800
O2532       O  0.86403555  0.77792826  0.54593078    -0.83800
C2533       C  0.83650391  0.77549335  0.53419018     0.96700
O2534       O  0.82293282  0.75096973  0.53879051    -0.83900
O2535       O  0.81213715  0.69102904  0.55267530    -0.86500
C2536       C  0.81387133  0.67804132  0.51168411     1.01200
O2537       O  0.83787863  0.67777252  0.98785067    -0.79300
O2538       O  0.89204132  0.69839137  0.95723418    -0.79500
C2539       C  0.88972175  0.72523745  0.94127995     1.01100
O2540       O  0.93299323  0.72021475  0.52269562    -0.86800
O2541       O  0.90549716  0.74652146  0.61061566    -0.83900
C2542       C  0.88471813  0.75416545  0.63973667     0.96700
O2543       O  0.85769356  0.75301118  0.62642632    -0.83900
O2544       O  0.85359078  0.69190852  0.63318548    -0.86500
C2545       C  0.85240690  0.66455119  0.62239773     1.01200
O2546       O  0.85942661  0.65608177  0.57928577    -0.79300
O2547       O  0.91570684  0.67920579  0.55311403    -0.79500
C2548       C  0.93579227  0.69233720  0.52947496     1.01100
Cr2549     Cr  0.89603821  0.74579242  0.53911180     1.93700
Cr2550     Cr  0.83873191  0.72136331  0.58506354     1.93200
Cr2551     Cr  0.87658238  0.68012677  0.52138030     1.39100
O2552       O  0.87008256  0.71571933  0.54733712    -1.24500
O2553       O  0.79050389  0.63423686  0.48153907    -0.86800
O2554       O  0.75984768  0.61080989  0.55781862    -0.83800
C2555       C  0.73780424  0.60854902  0.58618175     0.96700
O2556       O  0.71095375  0.60622668  0.57022565    -0.83900
O2557       O  0.69033081  0.66038253  0.53961513    -0.86500
C2558       C  0.69060027  0.68438575  0.51578757     1.01200
O2559       O  0.70358366  0.68611595  0.97478828    -0.79300
O2560       O  0.76353151  0.67532760  0.98867550    -0.79500
C2561       C  0.78806263  0.66176240  0.49327773     1.01100
O2562       O  0.75910085  0.59277603  0.91684566    -0.86800
O2563       O  0.73279244  0.56528348  0.00475513    -0.83900
C2564       C  0.70490989  0.56247868  0.99797730     0.96700
O2565       O  0.69176661  0.58256085  0.47435146    -0.83900
O2566       O  0.66863728  0.63883741  0.94817536    -0.86500
C2567       C  0.67711132  0.64585454  0.90506464     1.01200
O2568       O  0.70447298  0.64466022  0.89427920    -0.79300
O2569       O  0.76558564  0.64057001  0.90103984    -0.79500
C2570       C  0.76674302  0.61355105  0.88772598     1.01100
Cr2571     Cr  0.75836819  0.60223477  0.98835014     1.93700
Cr2572     Cr  0.69268615  0.62168277  0.50608218     1.93200
Cr2573     Cr  0.73392689  0.65952512  0.94240076     1.39100
O2574       O  0.72828548  0.62818153  0.98012602    -1.24500
O2575       O  0.64679999  0.77791609  0.79596123    -0.86800
O2576       O  0.62337919  0.74726540  0.71967078    -0.83800
C2577       C  0.62111691  0.72522770  0.69130473     0.96700
O2578       O  0.61880035  0.69838134  0.70725788    -0.83900
O2579       O  0.67296379  0.67776710  0.73786648    -0.86500
C2580       C  0.69697144  0.67803696  0.76169612     1.01200
O2581       O  0.69870425  0.69101963  0.80269112    -0.79300
O2582       O  0.68790552  0.75096060  0.78881746    -0.79500
C2583       C  0.67433088  0.77548320  0.78421631     1.01100
O2584       O  0.60533860  0.74650626  0.86064125    -0.86800
O2585       O  0.57784892  0.72020315  0.77272213    -0.83900
C2586       C  0.57505253  0.69232492  0.77949399     0.96700
O2587       O  0.59513586  0.67919245  0.80313461    -0.83900
O2588       O  0.65141827  0.65606870  0.82930089    -0.86500
C2589       C  0.65843551  0.66453670  0.87241382     1.01200
O2590       O  0.65724781  0.69189316  0.88320473    -0.79300
O2591       O  0.65314120  0.75299514  0.87645483    -0.79500
C2592       C  0.62611563  0.75415001  0.88976297     1.01100
Cr2593     Cr  0.61480070  0.74578003  0.78913862     1.93700
Cr2594     Cr  0.63426067  0.68011572  0.77140001     1.93200
Cr2595     Cr  0.67210668  0.72135074  0.83508663     1.39100
O2596       O  0.64075761  0.71570738  0.79736046    -1.24500
O2597       O  0.75983140  0.87487322  0.80784365    -0.86800
O2598       O  0.79048933  0.85144965  0.73155756    -0.83800
C2599       C  0.78804942  0.82392423  0.74329142     0.96700
O2600       O  0.76352133  0.81035677  0.73868105    -0.83900
O2601       O  0.70357757  0.79956610  0.72479648    -0.86500
C2602       C  0.69059957  0.80129408  0.76580037     1.01200
O2603       O  0.69032827  0.82529692  0.78963255    -0.79300
O2604       O  0.71093753  0.87945776  0.82024709    -0.79500
C2605       C  0.73778756  0.87713774  0.83620606     1.01100
O2606       O  0.73277458  0.92039616  0.75477810    -0.86800
O2607       O  0.75908699  0.89291098  0.66687466    -0.83900
C2608       C  0.76673132  0.87213904  0.63774862     0.96700
O2609       O  0.76557311  0.84511842  0.65105145    -0.83900
O2610       O  0.70445928  0.84102367  0.64429431    -0.86500
C2611       C  0.67709834  0.83982336  0.65508286     1.01200
O2612       O  0.66862533  0.84683608  0.69819676    -0.79300
O2613       O  0.69175018  0.90311478  0.72437065    -0.79500
C2614       C  0.70489290  0.92319898  0.74799434     1.01100
Cr2615     Cr  0.75835300  0.88344875  0.73837490     1.93700
Cr2616     Cr  0.73391637  0.82615930  0.69241047     1.93200
Cr2617     Cr  0.69267375  0.86399561  0.75610240     1.39100
O2618       O  0.72827301  0.85750067  0.73014394    -1.21300
O2619       O  0.62337361  0.73841514  0.96966962    -0.86800
O2620       O  0.64679612  0.70776298  0.54595026    -0.83800
C2621       C  0.67432749  0.71019666  0.53420497     0.96700
O2622       O  0.68789960  0.73472018  0.53880806    -0.83900
O2623       O  0.69869667  0.79466247  0.55270226    -0.86500
C2624       C  0.69696274  0.80765177  0.51171343     1.01200
O2625       O  0.67295663  0.80791939  0.98788174    -0.79300
O2626       O  0.61879798  0.78729984  0.95726144    -0.79500
C2627       C  0.62111570  0.76045311  0.94130641     1.01100
O2628       O  0.57783979  0.76547872  0.52271742    -0.86800
O2629       O  0.60533335  0.73917347  0.61064089    -0.83900
C2630       C  0.62611220  0.73152923  0.63975951     0.96700
O2631       O  0.65313663  0.73268114  0.62644564    -0.83900
O2632       O  0.65724091  0.79378301  0.63321281    -0.86500
C2633       C  0.65842447  0.82114029  0.62242860     1.01200
O2634       O  0.65140418  0.82961030  0.57931897    -0.79300
O2635       O  0.59512392  0.80648930  0.55313508    -0.79500
C2636       C  0.57504205  0.79335778  0.52948861     1.01100
Cr2637     Cr  0.61479415  0.73990046  0.53913580     1.93700
Cr2638     Cr  0.67210020  0.76432805  0.58508617     1.93200
Cr2639     Cr  0.63425179  0.80556578  0.52140894     1.39100
O2640       O  0.64075009  0.76997322  0.54736266    -1.24500
O2641       O  0.97034561  0.60145945  0.73152727    -0.86800
O2642       O  0.50100265  0.62488176  0.80781042    -0.83800
C2643       C  0.52304604  0.62714296  0.83617143     0.96700
O2644       O  0.54989686  0.62945970  0.82021304    -0.83900
O2645       O  0.57050624  0.57530273  0.78958836    -0.86500
C2646       C  0.57023553  0.55130080  0.76575507     1.01200
O2647       O  0.55725900  0.54957428  0.72475177    -0.79300
O2648       O  0.99731478  0.56036637  0.73864728    -0.79500
C2649       C  0.97278591  0.57393380  0.74326061     1.01100
O2650       O  0.50174989  0.64292167  0.66684134    -0.86800
O2651       O  0.52805890  0.67040570  0.75475250    -0.83900
C2652       C  0.55594263  0.67320694  0.74798490     0.96700
O2653       O  0.56908805  0.65312735  0.72435086    -0.83900
O2654       O  0.59221020  0.59684601  0.69815260    -0.86500
C2655       C  0.58373628  0.58983205  0.65504050     1.01200
O2656       O  0.55637544  0.59103521  0.64425524    -0.79300
O2657       O  0.49526232  0.59512928  0.65102162    -0.79500
C2658       C  0.49410618  0.62214920  0.63771652     1.01100
Cr2659     Cr  0.50248214  0.63345867  0.73834263     1.93700
Cr2660     Cr  0.56816198  0.61400307  0.75606546     1.93200
Cr2661     Cr  0.52691952  0.57616958  0.69237375     1.39100
O2662       O  0.53256295  0.60751063  0.73010783    -1.24500
O2663       O  0.61403639  0.95776404  0.54590780    -0.86800
O2664       O  0.63745870  0.48841634  0.96962591    -0.83800
C2665       C  0.63971846  0.51045474  0.94126420     0.96700
O2666       O  0.64204385  0.53730008  0.95722247    -0.83900
O2667       O  0.58788282  0.55792362  0.98783779    -0.86500
C2668       C  0.56387470  0.55765449  0.51166718     1.01200
O2669       O  0.56213801  0.54466488  0.55265604    -0.79300
O2670       O  0.57293403  0.98472323  0.53876591    -0.79500
C2671       C  0.58650600  0.96019910  0.53416225     1.01100
O2672       O  0.65549825  0.98916979  0.61059567    -0.86800
O2673       O  0.68299380  0.51547639  0.52267700    -0.83900
C2674       C  0.68579366  0.54335335  0.52946670     0.96700
O2675       O  0.66570785  0.55648326  0.55310920    -0.83900
O2676       O  0.60942926  0.57961245  0.57927575    -0.86500
C2677       C  0.60240732  0.57114436  0.62238573     1.01200
O2678       O  0.60358714  0.54378671  0.63317088    -0.79300
O2679       O  0.60769429  0.48268355  0.62640689    -0.79500
C2680       C  0.63471903  0.98152823  0.63971736     1.01100
Cr2681     Cr  0.64603850  0.98989930  0.53909165     1.93700
Cr2682     Cr  0.62658498  0.55556584  0.52137005     1.93200
Cr2683     Cr  0.58873163  0.51433056  0.58504428     1.39100
O2684       O  0.62008324  0.51997364  0.54732142    -1.24500
O2685       O  0.50099116  0.86080777  0.55779921    -0.86800
O2686       O  0.97033457  0.88423545  0.48152347    -0.83800
C2687       C  0.97277528  0.91176119  0.49325854     0.96700
O2688       O  0.99730607  0.92532602  0.98865238    -0.83900
O2689       O  0.55725194  0.93611575  0.97474938    -0.86500
C2690       C  0.57023341  0.93438862  0.51574855     1.01200
O2691       O  0.57050169  0.91038741  0.53958094    -0.79300
O2692       O  0.54988596  0.85623371  0.57020507    -0.79500
C2693       C  0.52303432  0.85854989  0.58616104     1.01100
O2694       O  0.52804787  0.81528202  0.00473906    -0.86800
O2695       O  0.50173898  0.84277288  0.91682573    -0.83900
C2696       C  0.49409399  0.86354763  0.88770775     0.96700
O2697       O  0.49524916  0.89056632  0.90102211    -0.83900
O2698       O  0.55636133  0.89465427  0.89424971    -0.86500
C2699       C  0.58372255  0.89585410  0.90503148     1.01200
O2700       O  0.59219882  0.88883758  0.94814110    -0.79300
O2701       O  0.56907924  0.83255707  0.47434680    -0.79500
C2702       C  0.55593263  0.81247852  0.99797812     1.01100
Cr2703     Cr  0.50247146  0.85223260  0.98833099     1.93700
Cr2704     Cr  0.52690897  0.90952189  0.94237374     1.93200
Cr2705     Cr  0.56815251  0.87168502  0.50605764     1.39100
O2706       O  0.53255297  0.87817935  0.98010148    -1.24500
O2707       O  0.63745144  0.99726697  0.71962745    -0.86800
O2708       O  0.61403249  0.52792113  0.79591785    -0.83800
C2709       C  0.58650252  0.52548936  0.78417176     0.96700
O2710       O  0.57292681  0.50096807  0.78877614    -0.83900
O2711       O  0.56212646  0.94102810  0.80265069    -0.86500
C2712       C  0.56386215  0.92804085  0.76165874     1.01200
O2713       O  0.58787059  0.92776900  0.73782891    -0.79300
O2714       O  0.64203655  0.94838301  0.70722140    -0.79500
C2715       C  0.63971524  0.97522812  0.69126357     1.01100
O2716       O  0.68298102  0.97020242  0.77268211    -0.86800
O2717       O  0.65549210  0.99651057  0.86059499    -0.83900
C2718       C  0.63471576  0.00415422  0.88972041     0.96700
O2719       O  0.60768948  0.00300086  0.87641601    -0.83900
O2720       O  0.60357570  0.94189810  0.88316797    -0.86500
C2721       C  0.60239264  0.91454101  0.87237766     1.01200
O2722       O  0.60941063  0.90607373  0.82926434    -0.79300
O2723       O  0.66568955  0.92919985  0.80311535    -0.79500
C2724       C  0.68577743  0.94232641  0.77947678     1.01100
Cr2725     Cr  0.64603018  0.99578315  0.78909449     1.93700
Cr2726     Cr  0.58872227  0.97135783  0.83504746     1.93200
Cr2727     Cr  0.62657108  0.93011984  0.77136583     1.39100
O2728       O  0.62007210  0.96571236  0.79732116    -1.24500
O2729       O  0.54049269  0.88423847  0.73151517    -0.86800
O2730       O  0.00983503  0.86081555  0.80779792    -0.83800
C2731       C  0.98779191  0.85855449  0.83616184     0.96700
O2732       O  0.96094055  0.85624173  0.82020638    -0.83900
O2733       O  0.94033586  0.91040111  0.78958891    -0.86500
C2734       C  0.94060524  0.93440150  0.76575623     1.01200
O2735       O  0.95358127  0.93612693  0.72475031    -0.79300
O2736       O  0.51352522  0.92533333  0.73863926    -0.79500
C2737       C  0.53805362  0.91176504  0.74324875     1.01100
O2738       O  0.50908554  0.84277766  0.66682699    -0.86800
O2739       O  0.98277410  0.81529443  0.75473586    -0.83900
C2740       C  0.95489021  0.81249479  0.74796987     0.96700
O2741       O  0.94174598  0.83257618  0.72434247    -0.83900
O2742       O  0.91862933  0.88885834  0.69815309    -0.86500
C2743       C  0.92710373  0.89586894  0.65503945     1.01200
O2744       O  0.95446455  0.89466415  0.64425160    -0.79300
O2745       O  0.01557746  0.89056931  0.65101273    -0.79500
C2746       C  0.51673169  0.86354934  0.63770477     1.01100
Cr2747     Cr  0.50835422  0.85224019  0.73832909     1.93700
Cr2748     Cr  0.94267624  0.87170024  0.75606218     1.93200
Cr2749     Cr  0.98392033  0.90953024  0.69236835     1.39100
O2750       O  0.97827547  0.87819019  0.73010110    -1.24500
O2751       O  0.89680224  0.52793219  0.54591577    -0.86800
O2752       O  0.87337795  0.99727901  0.96963566    -0.83800
C2753       C  0.87111914  0.97524059  0.94127110     0.96700
O2754       O  0.86879745  0.94839478  0.95722664    -0.83900
O2755       O  0.92295980  0.92777327  0.98783600    -0.86500
C2756       C  0.94696768  0.92804232  0.51166642     1.01200
O2757       O  0.94870275  0.94103238  0.55265442    -0.79300
O2758       O  0.93790575  0.50097383  0.53876825    -0.79500
C2759       C  0.92433354  0.52549750  0.53416912     1.01100
O2760       O  0.85534239  0.99652487  0.61060797    -0.86800
O2761       O  0.82784592  0.97021607  0.52269195    -0.83900
C2762       C  0.82504732  0.94233900  0.52948054     0.96700
O2763       O  0.84513466  0.92921034  0.55311646    -0.83900
O2764       O  0.90141348  0.90608557  0.57927517    -0.86500
C2765       C  0.90843356  0.91455509  0.62238578     1.01200
O2766       O  0.90725261  0.94191290  0.63317240    -0.79300
O2767       O  0.90314596  0.00301559  0.62641096    -0.79500
C2768       C  0.87612146  0.00416891  0.63972609     1.01100
Cr2769     Cr  0.86480060  0.99579551  0.53910266     1.93700
Cr2770     Cr  0.88425725  0.93013002  0.52137193     1.93200
Cr2771     Cr  0.92210859  0.97136749  0.58504591     1.39100
O2772       O  0.89075748  0.96572277  0.54732524    -1.24500
O2773       O  0.00984905  0.62488688  0.55780973    -0.86800
O2774       O  0.54050708  0.60145980  0.48152821    -0.83800
C2775       C  0.53806590  0.57393329  0.49326137     0.96700
O2776       O  0.51353629  0.56036846  0.98865303    -0.83900
O2777       O  0.95358957  0.54957973  0.97475855    -0.86500
C2778       C  0.94060628  0.55130848  0.51575854     1.01200
O2779       O  0.94033713  0.57531013  0.53959261    -0.79300
O2780       O  0.96095442  0.62946636  0.57021596    -0.79500
C2781       C  0.98780525  0.62714773  0.58617250     1.01100
O2782       O  0.98279172  0.67041181  0.00475263    -0.86800
O2783       O  0.50910232  0.64292178  0.91683986    -0.83900
C2784       C  0.51674571  0.62214759  0.88771680     0.96700
O2785       O  0.01559149  0.59512856  0.90102653    -0.83900
O2786       O  0.95447880  0.59103846  0.89426002    -0.86500
C2787       C  0.92711713  0.58984144  0.90504520     1.01200
O2788       O  0.91864228  0.59685682  0.94815701    -0.79300
O2789       O  0.94176675  0.65313352  0.47434717    -0.79500
C2790       C  0.95490873  0.67321478  0.99797823     1.01100
Cr2791     Cr  0.50836982  0.63346173  0.48834252     1.93700
Cr2792     Cr  0.98393238  0.57617202  0.94237986     1.93200
Cr2793     Cr  0.94268908  0.61401088  0.50606870     1.39100
O2794       O  0.97828891  0.60751425  0.98011227    -1.24500
O2795       O  0.87338756  0.48843250  0.71963500    -0.86800
O2796       O  0.89680639  0.95778020  0.79592004    -0.83800
C2797       C  0.92433714  0.96021311  0.78417351     0.96700
O2798       O  0.93791150  0.98473438  0.78877926    -0.83900
O2799       O  0.94871110  0.54467360  0.80266418    -0.86500
C2800       C  0.94697757  0.55765810  0.76167179     1.01200
O2801       O  0.92297052  0.55792801  0.73784190    -0.79300
O2802       O  0.86880701  0.53731651  0.70723024    -0.79500
C2803       C  0.87112578  0.51047051  0.69127239     1.01100
O2804       O  0.82785599  0.51549562  0.77269198    -0.86800
O2805       O  0.85534457  0.98918830  0.86060540    -0.83900
C2806       C  0.87612098  0.98154306  0.88972714     0.96700
O2807       O  0.90314710  0.98269858  0.87642041    -0.83900
O2808       O  0.90725679  0.54380150  0.88317863    -0.86500
C2809       C  0.90844350  0.57115826  0.87239088     1.01200
O2810       O  0.90142572  0.57962631  0.82927951    -0.79300
O2811       O  0.84514350  0.55650504  0.80311263    -0.79500
C2812       C  0.82505865  0.54337321  0.77947347     1.01100
Cr2813     Cr  0.86480759  0.98991682  0.78910280     1.93700
Cr2814     Cr  0.92211358  0.51434319  0.83505537     1.93200
Cr2815     Cr  0.88426768  0.55558046  0.77137562     1.39100
O2816       O  0.89076426  0.51998846  0.79733103    -1.24500
loop_ 
_geom_bond_atom_site_label_1 
_geom_bond_atom_site_label_2 
_geom_bond_distance 
_geom_bond_site_symmetry_2 
_ccdc_geom_bond_type 
O1            C9   1.274       .  A
O1         Cr371   2.032       .  S
O2            C3   1.256       .  A
O2         Cr371   1.936   1_554  S
C3            O4   1.279       .  A
C3          C144   1.453       .  S
O4          Cr20   2.051       .  S
O5            C6   1.253       .  A
O5          Cr20   1.958       .  S
C6          O359   1.263   1_554  A
C6           C69   1.451       .  S
O7          C358   1.263       .  A
O7          Cr21   2.006       .  S
O8          C361   1.257       .  A
O8          Cr21   1.959       .  S
C9          O360   1.257       .  A
C9          C160   1.451   1_556  S
O10          C18   1.268       .  A
O10         Cr19   1.998       .  S
O11          C12   1.264       .  A
O11         Cr19   2.055       .  S
C12         O365   1.250       .  A
C12         C650   1.482       .  S
O13         C364   1.250       .  A
O13         Cr20   1.949   1_556  S
O14          C15   1.276       .  A
O14        Cr372   2.059       .  S
C15          O16   1.257       .  A
C15          C37   1.478       .  S
O16         Cr21   1.973       .  S
O17          C18   1.260       .  A
O17         Cr21   1.997       .  S
C18         C141   1.453       .  S
Cr19        O353   2.032       .  S
Cr19        O354   1.936       .  S
Cr19         O22   1.787       .  S
Cr20        O366   2.059   1_554  S
Cr20        O374   1.763   1_554  S
Cr21         O22   1.755       .  S
O22        Cr372   1.763       .  S
O23          C31   1.274       .  A
O23         Cr41   2.032       .  S
O24          C25   1.256       .  A
O24         Cr41   1.936       .  S
C25          O26   1.279       .  A
C25          C78   1.453       .  S
O26         Cr42   2.051       .  S
O27          C28   1.253       .  A
O27         Cr42   1.957       .  S
C28          O29   1.263       .  A
C28         C135   1.451       .  S
O29         Cr43   2.006       .  S
O30          C31   1.257       .  A
O30         Cr43   1.959       .  S
C31          C50   1.451       .  S
O32          C40   1.268       .  A
O32         Cr41   1.998       .  S
O33          C34   1.264       .  A
O33         Cr41   2.055       .  S
C34          O35   1.250       .  A
C34         C276   1.482       .  S
O35         Cr42   1.949       .  S
O36          C37   1.276       .  A
O36         Cr42   2.059       .  S
C37          O38   1.257       .  A
O38         Cr43   1.973       .  S
O39          C40   1.260       .  A
O39         Cr43   1.997       .  S
C40          C75   1.453       .  S
Cr41         O44   1.787       .  S
Cr42         O44   1.763       .  S
Cr43         O44   1.755       .  S
O45          C53   1.256       .  A
O45         Cr63   1.936       .  S
O46          C47   1.274       .  A
O46         Cr63   2.032       .  S
C47          O48   1.257       .  A
C47         C116   1.451       .  S
O48         Cr64   1.959       .  S
O49          C50   1.263       .  A
O49         Cr64   2.006       .  S
C50          O51   1.253       .  A
O51         Cr65   1.957       .  S
O52          C53   1.279       .  A
O52         Cr65   2.051       .  S
C53         C106   1.453       .  S
O54          C62   1.264       .  A
O54         Cr63   2.055       .  S
O55          C56   1.268       .  A
O55         Cr63   1.998       .  S
C56          O57   1.260       .  A
C56          C91   1.453       .  S
O57         Cr64   1.997       .  S
O58          C59   1.257       .  A
O58         Cr64   1.973       .  S
C59          O60   1.276       .  A
C59          C81   1.478       .  S
O60         Cr65   2.059       .  S
O61          C62   1.250       .  A
O61         Cr65   1.949       .  S
C62         C348   1.482       .  S
Cr63         O66   1.787       .  S
Cr64         O66   1.755       .  S
Cr65         O66   1.763       .  S
O67          C75   1.256       .  A
O67        Cr437   1.936       .  S
O68          C69   1.274       .  A
O68         Cr85   2.032       .  S
C69          O70   1.257       .  A
O70         Cr86   1.959       .  S
O71          C72   1.263       .  A
O71         Cr86   2.006       .  S
C72         O425   1.253   1_554  A
C72          C97   1.451   1_554  S
O73         C424   1.253       .  A
O73        Cr439   1.957       .  S
O74          C75   1.279       .  A
O74        Cr439   2.052       .  S
O76          C84   1.264       .  A
O76         Cr85   2.055       .  S
O77          C78   1.268       .  A
O77         Cr85   1.998       .  S
C78          O79   1.260       .  A
O79         Cr86   1.997       .  S
O80          C81   1.257       .  A
O80         Cr86   1.973       .  S
C81          O82   1.276       .  A
O82         Cr87   2.059       .  S
O83          C84   1.250       .  A
O83         Cr87   1.949       .  S
C84         C678   1.482   1_554  S
Cr85        O419   1.936   1_554  S
Cr85         O88   1.787       .  S
Cr86         O88   1.755       .  S
Cr87        O425   1.957   1_554  S
Cr87        O426   2.052   1_554  S
Cr87         O88   1.763       .  S
O89          C97   1.274       .  A
O89        Cr459   2.032       .  S
O90          C91   1.256       .  A
O90        Cr459   1.936   1_554  S
C91          O92   1.279       .  A
O92        Cr108   2.051       .  S
O93          C94   1.253       .  A
O93        Cr108   1.958       .  S
C94         O447   1.263   1_554  A
C94         C157   1.451       .  S
O95         C446   1.263       .  A
O95        Cr109   2.006       .  S
O96         C449   1.257       .  A
O96        Cr109   1.959       .  S
C97         O448   1.257       .  A
O98         C106   1.268       .  A
O98        Cr107   1.998       .  S
O99         C100   1.264       .  A
O99        Cr107   2.055       .  S
C100        O453   1.250       .  A
C100        C562   1.482       .  S
O101        C452   1.250       .  A
O101       Cr108   1.949   1_556  S
O102        C103   1.276       .  A
O102       Cr460   2.059       .  S
C103        O104   1.257       .  A
C103        C125   1.478       .  S
O104       Cr109   1.973       .  S
O105        C106   1.260       .  A
O105       Cr109   1.997       .  S
Cr107       O441   2.032       .  S
Cr107       O442   1.936       .  S
Cr107       O110   1.787       .  S
Cr108       O454   2.059   1_554  S
Cr108       O462   1.763   1_554  S
Cr109       O110   1.755       .  S
O110       Cr460   1.763       .  S
O111        C119   1.274       .  A
O111       Cr129   2.032       .  S
O112        C113   1.256       .  A
O112       Cr129   1.936       .  S
C113        O114   1.279       .  A
C113        C166   1.453       .  S
O114       Cr130   2.051       .  S
O115        C116   1.253       .  A
O115       Cr130   1.957       .  S
C116        O117   1.263       .  A
O117       Cr131   2.006       .  S
O118        C119   1.257       .  A
O118       Cr131   1.959       .  S
C119        C138   1.451       .  S
O120        C128   1.268       .  A
O120       Cr129   1.998       .  S
O121        C122   1.264       .  A
O121       Cr129   2.055       .  S
C122        O123   1.250       .  A
C122        C188   1.482       .  S
O123       Cr130   1.949       .  S
O124        C125   1.276       .  A
O124       Cr130   2.059       .  S
C125        O126   1.257       .  A
O126       Cr131   1.973       .  S
O127        C128   1.260       .  A
O127       Cr131   1.997       .  S
C128        C163   1.453       .  S
Cr129       O132   1.787       .  S
Cr130       O132   1.763       .  S
Cr131       O132   1.755       .  S
O133        C141   1.256       .  A
O133       Cr151   1.936       .  S
O134        C135   1.274       .  A
O134       Cr151   2.032       .  S
C135        O136   1.257       .  A
O136       Cr152   1.959       .  S
O137        C138   1.263       .  A
O137       Cr152   2.006       .  S
C138        O139   1.253       .  A
O139       Cr153   1.958       .  S
O140        C141   1.279       .  A
O140       Cr153   2.051       .  S
O142        C150   1.264       .  A
O142       Cr151   2.055       .  S
O143        C144   1.268       .  A
O143       Cr151   1.998       .  S
C144        O145   1.260       .  A
O145       Cr152   1.997       .  S
O146        C147   1.257       .  A
O146       Cr152   1.973       .  S
C147        O148   1.276       .  A
C147        C169   1.478       .  S
O148       Cr153   2.059       .  S
O149        C150   1.250       .  A
O149       Cr153   1.949       .  S
C150        C260   1.482       .  S
Cr151       O154   1.787       .  S
Cr152       O154   1.755       .  S
Cr153       O154   1.763       .  S
O155        C163   1.256       .  A
O155       Cr525   1.936       .  S
O156        C157   1.274       .  A
O156       Cr173   2.032       .  S
C157        O158   1.257       .  A
O158       Cr174   1.959       .  S
O159        C160   1.263       .  A
O159       Cr174   2.006       .  S
C160        O513   1.253   1_554  A
O161        C512   1.253       .  A
O161       Cr527   1.957       .  S
O162        C163   1.279       .  A
O162       Cr527   2.051       .  S
O164        C172   1.264       .  A
O164       Cr173   2.055       .  S
O165        C166   1.268       .  A
O165       Cr173   1.998       .  S
C166        O167   1.260       .  A
O167       Cr174   1.997       .  S
O168        C169   1.257       .  A
O168       Cr174   1.973       .  S
C169        O170   1.276       .  A
O170       Cr175   2.059       .  S
O171        C172   1.250       .  A
O171       Cr175   1.949       .  S
C172        C590   1.482   1_554  S
Cr173       O507   1.936   1_554  S
Cr173       O176   1.787       .  S
Cr174       O176   1.755       .  S
Cr175       O513   1.957   1_554  S
Cr175       O514   2.051   1_554  S
Cr175       O176   1.763       .  S
O177        C185   1.274       .  A
O177      Cr1603   2.032       .  S
O178        C179   1.256       .  A
O178       Cr195   1.936       .  S
C179        O180   1.279       .  A
C179        C320   1.453       .  S
O180       Cr196   2.051       .  S
O181        C182   1.253       .  A
O181       Cr196   1.957       .  S
C182        O183   1.263       .  A
C182        C245   1.451       .  S
O183       Cr197   2.006       .  S
O184        C185   1.257       .  A
O184      Cr1605   1.959       .  S
C185        C336   1.451       .  S
O186        C194   1.268   1_455  A
O186       Cr195   1.998       .  S
O187        C188   1.264       .  A
O187       Cr195   2.055       .  S
C188        O189   1.250       .  A
O189       Cr196   1.949       .  S
O190        C191   1.276       .  A
O190       Cr196   2.059       .  S
C191        O192   1.257       .  A
C191        C213   1.478       .  S
O192       Cr197   1.973       .  S
O193        C194   1.260       .  A
O193       Cr197   1.997   1_655  S
C194       C1725   1.453       .  S
Cr195      O1585   2.032   1_455  S
Cr195       O198   1.787       .  S
Cr196       O198   1.763       .  S
Cr197      O1592   1.959   1_455  S
Cr197       O198   1.755       .  S
O199        C207   1.274       .  A
O199       Cr217   2.032       .  S
O200        C201   1.256   1_565  A
O200      Cr1273   1.936       .  S
C201        O202   1.279       .  A
C201        C958   1.453       .  S
O202       Cr570   2.051       .  S
O203        C556   1.253       .  A
O203       Cr570   1.957       .  S
C204        O205   1.263       .  A
C204        O555   1.253   1_554  A
C204        C311   1.451   1_554  S
O205       Cr219   2.006       .  S
O206        C207   1.257       .  A
O206       Cr923   1.959       .  S
C207        C226   1.451       .  S
O208        C216   1.268       .  A
O208       Cr217   1.998       .  S
O209        C210   1.264       .  A
O209       Cr921   2.055   1_545  S
C210        O211   1.250       .  A
C210        C452   1.482   1_554  S
O211       Cr218   1.949       .  S
O212        C213   1.276       .  A
O212       Cr218   2.059       .  S
C213        O214   1.257       .  A
O214       Cr219   1.973       .  S
O215        C920   1.260       .  A
O215       Cr219   1.997   1_565  S
C216        O919   1.260       .  A
C216        C251   1.453       .  S
Cr217      O1256   1.936   1_554  S
Cr217       O913   2.055       .  S
Cr217       O924   1.787       .  S
Cr218       O554   2.051   1_554  S
Cr218       O555   1.957   1_554  S
Cr218       O220   1.763       .  S
Cr219       O910   1.959   1_545  S
Cr219       O220   1.755       .  S
O220       Cr921   1.787   1_545  S
O221        C229   1.256       .  A
O221       Cr591   1.936   1_554  S
O222        C223   1.274       .  A
O222      Cr1999   2.032       .  S
C223        O576   1.257       .  A
C223        C292   1.451   1_556  S
O224        C575   1.257       .  A
O224      Cr1648   1.959       .  S
O225        C578   1.263       .  A
O225       Cr240   2.006       .  S
C226        O227   1.253       .  A
C226        O577   1.263   1_554  A
O227       Cr241   1.958       .  S
O228        C229   1.279       .  A
O228       Cr241   2.051       .  S
C229        C282   1.453       .  S
O230        C238   1.264       .  A
O230       Cr239   2.055       .  S
O231        C232   1.268   1_455  A
O231       Cr239   1.998       .  S
C232        O233   1.260       .  A
C232       C1675   1.453       .  S
O233       Cr240   1.997   1_655  S
O234        C235   1.257       .  A
O234       Cr240   1.973       .  S
C235        O236   1.276       .  A
C235        C257   1.478       .  S
O236       Cr593   2.059       .  S
O237        C590   1.250       .  A
O237       Cr241   1.949   1_556  S
C238        O589   1.250       .  A
C238        C524   1.482       .  S
Cr239       O573   1.936       .  S
Cr239      O1982   2.032   1_455  S
Cr239       O242   1.787       .  S
Cr240      O1632   1.959   1_455  S
Cr240       O242   1.755       .  S
Cr241       O588   2.059   1_554  S
Cr241       O594   1.763   1_554  S
O242       Cr593   1.763       .  S
O243        C251   1.256       .  A
O243       Cr261   1.936       .  S
O244        C245   1.274       .  A
O244       Cr965   2.032   1_545  S
C245        O246   1.257       .  A
O246       Cr966   1.959   1_545  S
O247        C248   1.263       .  A
O247       Cr262   2.006       .  S
C248        O249   1.253       .  A
C248        C273   1.451       .  S
O249       Cr263   1.957       .  S
O250        C251   1.279       .  A
O250       Cr263   2.052       .  S
O252        C260   1.264       .  A
O252       Cr261   2.055       .  S
O253        C254   1.268       .  A
O253       Cr261   1.998       .  S
C254        O255   1.260       .  A
C254        C905   1.453       .  S
O255       Cr262   1.997       .  S
O256        C257   1.257       .  A
O256       Cr262   1.973       .  S
C257        O258   1.276       .  A
O258       Cr263   2.059       .  S
O259        C260   1.250       .  A
O259       Cr263   1.949       .  S
Cr261       O948   2.032       .  S
Cr261       O264   1.787       .  S
Cr262       O950   1.959       .  S
Cr262       O264   1.755       .  S
Cr263       O264   1.763       .  S
O265        C273   1.274       .  A
O265       Cr283   2.032       .  S
O266        C267   1.256       .  A
O266      Cr1691   1.936       .  S
C267        O268   1.279       .  A
C267       C1640   1.453       .  S
O268       Cr284   2.051       .  S
O269        C270   1.253       .  A
O269       Cr284   1.957       .  S
C270        O271   1.263       .  A
C270        C333   1.451       .  S
O271       Cr285   2.006       .  S
O272        C273   1.257       .  A
O272      Cr1693   1.959   1_455  S
O274        C282   1.268       .  A
O274       Cr283   1.998       .  S
O275        C276   1.264       .  A
O275      Cr1691   2.055       .  S
C276        O277   1.250       .  A
O277       Cr284   1.949       .  S
O278        C279   1.276       .  A
O278       Cr284   2.059       .  S
C279        O280   1.257       .  A
C279        C301   1.478       .  S
O280       Cr285   1.973       .  S
O281       C1690   1.260       .  A
O281       Cr285   1.997       .  S
C282       O1689   1.260       .  A
Cr283      O1674   1.936       .  S
Cr283      O1683   2.055   1_455  S
Cr283      O1694   1.787   1_455  S
Cr284       O286   1.763       .  S
Cr285      O1680   1.959       .  S
Cr285       O286   1.755       .  S
O286      Cr1691   1.787       .  S
O287        C295   1.274       .  A
O287      Cr1009   2.032   1_545  S
O288        C289   1.256       .  A
O288       Cr657   1.936       .  S
C289        O290   1.279       .  A
C289        C342   1.453       .  S
O290       Cr658   2.052       .  S
O291        C644   1.253       .  A
O291       Cr658   1.957       .  S
C292        O293   1.263       .  A
C292        O643   1.253   1_554  A
O293       Cr307   2.006       .  S
O294        C295   1.257       .  A
O294      Cr1011   1.959   1_545  S
C295        C314   1.451       .  S
O296        C304   1.268       .  A
O296       Cr305   1.998       .  S
O297        C298   1.264       .  A
O297       Cr305   2.055       .  S
C298        O299   1.250       .  A
C298        C364   1.482   1_554  S
O299       Cr306   1.949       .  S
O300        C301   1.276       .  A
O300       Cr306   2.059       .  S
C301        O302   1.257       .  A
O302       Cr307   1.973       .  S
O303        C304   1.260       .  A
O303       Cr307   1.997       .  S
C304       C1043   1.453       .  S
Cr305       O991   2.032       .  S
Cr305       O640   1.936   1_554  S
Cr305       O308   1.787       .  S
Cr306       O642   2.052   1_554  S
Cr306       O643   1.957   1_554  S
Cr306       O308   1.763       .  S
Cr307       O998   1.959       .  S
Cr307       O308   1.755       .  S
O309        C317   1.256       .  A
O309      Cr1735   1.936   1_554  S
O310        C311   1.274       .  A
O310       Cr327   2.032       .  S
C311        O664   1.257       .  A
O312        C663   1.257       .  A
O312      Cr1736   1.959   1_455  S
O313        C666   1.263       .  A
O313       Cr328   2.006       .  S
C314        O315   1.253       .  A
C314        O665   1.263   1_554  A
O315       Cr329   1.958       .  S
O316        C317   1.279       .  A
O316       Cr329   2.051       .  S
C317       C1602   1.453       .  S
O318        C326   1.264       .  A
O318      Cr2087   2.055       .  S
O319        C320   1.268       .  A
O319       Cr679   1.998       .  S
C320       O1729   1.260       .  A
O321       C1728   1.260       .  A
O321       Cr328   1.997       .  S
O322        C323   1.257       .  A
O322       Cr328   1.973       .  S
C323        O324   1.276       .  A
C323        C345   1.478       .  S
O324       Cr681   2.059       .  S
O325        C678   1.250       .  A
O325       Cr329   1.949   1_556  S
C326        O677   1.250       .  A
C326        C436   1.482       .  S
Cr327      O1717   1.936   1_556  S
Cr327      O2078   2.055   1_456  S
Cr327       O671   1.998       .  S
Cr327      O2090   1.787   1_455  S
Cr328      O1720   1.959       .  S
Cr328       O330   1.755       .  S
Cr329       O676   2.059   1_554  S
Cr329       O682   1.763   1_554  S
O330      Cr2087   1.787       .  S
O330       Cr681   1.763       .  S
O331        C339   1.256   1_565  A
O331      Cr1053   1.936       .  S
O332        C333   1.274       .  A
O332       Cr349   2.032       .  S
C333        O334   1.257       .  A
O334      Cr1054   1.959       .  S
O335        C336   1.263       .  A
O335       Cr350   2.006       .  S
C336        O337   1.253       .  A
O337       Cr351   1.957       .  S
O338        C339   1.279       .  A
O338       Cr351   2.052       .  S
C339       C1008   1.453       .  S
O340        C348   1.264       .  A
O340      Cr1053   2.055   1_545  S
O341        C342   1.268       .  A
O341       Cr349   1.998       .  S
C342        O343   1.260       .  A
O343      Cr1054   1.997       .  S
O344        C345   1.257       .  A
O344       Cr350   1.973       .  S
C345        O346   1.276       .  A
O346       Cr351   2.059       .  S
O347        C348   1.250       .  A
O347       Cr351   1.949       .  S
Cr349      O1035   1.936       .  S
Cr349      O1044   2.055       .  S
Cr349      O1056   1.787       .  S
Cr350      O1038   1.959   1_545  S
Cr350      O1047   1.997   1_545  S
Cr350       O352   1.755       .  S
Cr351       O352   1.763       .  S
O352      Cr1053   1.787   1_545  S
O353        C361   1.274       .  A
O354        C355   1.256       .  A
C355        O356   1.279       .  A
C355        C496   1.453       .  S
O356       Cr372   2.051       .  S
O357        C358   1.253       .  A
O357       Cr372   1.958       .  S
C358        C421   1.451       .  S
O359       Cr373   2.006       .  S
O360       Cr373   1.959       .  S
C361        C512   1.451       .  S
O362        C370   1.268       .  A
O362       Cr371   1.998       .  S
O363        C364   1.264   1_554  A
O363       Cr371   2.055   1_554  S
O365       Cr372   1.949       .  S
O366        C367   1.276       .  A
C367        O368   1.257       .  A
C367        C389   1.478       .  S
O368       Cr373   1.973       .  S
O369        C370   1.260       .  A
O369       Cr373   1.997       .  S
C370        C493   1.453       .  S
Cr371       O374   1.787       .  S
Cr373       O374   1.755       .  S
O375        C383   1.274       .  A
O375       Cr393   2.032       .  S
O376        C377   1.256       .  A
O376       Cr393   1.936       .  S
C377        O378   1.279       .  A
C377        C430   1.453       .  S
O378       Cr394   2.051       .  S
O379        C380   1.253       .  A
O379       Cr394   1.957       .  S
C380        O381   1.263       .  A
C380        C487   1.451       .  S
O381       Cr395   2.006       .  S
O382        C383   1.257       .  A
O382       Cr395   1.959       .  S
C383        C402   1.451       .  S
O384        C392   1.268       .  A
O384       Cr393   1.998       .  S
O385        C386   1.264       .  A
O385       Cr393   2.055       .  S
C386        O387   1.250       .  A
C386        C628   1.482       .  S
O387       Cr394   1.949       .  S
O388        C389   1.276       .  A
O388       Cr394   2.059       .  S
C389        O390   1.257       .  A
O390       Cr395   1.973       .  S
O391        C392   1.260       .  A
O391       Cr395   1.997       .  S
C392        C427   1.453       .  S
Cr393       O396   1.787       .  S
Cr394       O396   1.763       .  S
Cr395       O396   1.755       .  S
O397        C405   1.256       .  A
O397       Cr415   1.936       .  S
O398        C399   1.274       .  A
O398       Cr415   2.032       .  S
C399        O400   1.257       .  A
C399        C468   1.451       .  S
O400       Cr416   1.959       .  S
O401        C402   1.263       .  A
O401       Cr416   2.006       .  S
C402        O403   1.253       .  A
O403       Cr417   1.957       .  S
O404        C405   1.279       .  A
O404       Cr417   2.051       .  S
C405        C458   1.453       .  S
O406        C414   1.264       .  A
O406       Cr415   2.055       .  S
O407        C408   1.268       .  A
O407       Cr415   1.998       .  S
C408        O409   1.260       .  A
C408        C443   1.453       .  S
O409       Cr416   1.997       .  S
O410        C411   1.257       .  A
O410       Cr416   1.973       .  S
C411        O412   1.276       .  A
C411        C433   1.478       .  S
O412       Cr417   2.059       .  S
O413        C414   1.250       .  A
O413       Cr417   1.949       .  S
C414        C700   1.482       .  S
Cr415       O418   1.787       .  S
Cr416       O418   1.755       .  S
Cr417       O418   1.763       .  S
O419        C427   1.256       .  A
O420        C421   1.274       .  A
O420       Cr437   2.032       .  S
C421        O422   1.257       .  A
O422       Cr438   1.959       .  S
O423        C424   1.263       .  A
O423       Cr438   2.006       .  S
C424        C449   1.451       .  S
O426        C427   1.279       .  A
O428        C436   1.264       .  A
O428       Cr437   2.055       .  S
O429        C430   1.268       .  A
O429       Cr437   1.998       .  S
C430        O431   1.260       .  A
O431       Cr438   1.997       .  S
O432        C433   1.257       .  A
O432       Cr438   1.973       .  S
C433        O434   1.276       .  A
O434       Cr439   2.059       .  S
O435        C436   1.250       .  A
O435       Cr439   1.949       .  S
Cr437       O440   1.787       .  S
Cr438       O440   1.755       .  S
Cr439       O440   1.763       .  S
O441        C449   1.274       .  A
O442        C443   1.256       .  A
C443        O444   1.279       .  A
O444       Cr460   2.051       .  S
O445        C446   1.253       .  A
O445       Cr460   1.958       .  S
C446        C509   1.451       .  S
O447       Cr461   2.006       .  S
O448       Cr461   1.959       .  S
O450        C458   1.268       .  A
O450       Cr459   1.998       .  S
O451        C452   1.264   1_554  A
O451       Cr459   2.055   1_554  S
O453       Cr460   1.949       .  S
O454        C455   1.276       .  A
C455        O456   1.257       .  A
C455        C477   1.478       .  S
O456       Cr461   1.973       .  S
O457        C458   1.260       .  A
O457       Cr461   1.997       .  S
Cr459       O462   1.787       .  S
Cr461       O462   1.755       .  S
O463        C471   1.274       .  A
O463       Cr481   2.032       .  S
O464        C465   1.256       .  A
O464       Cr481   1.936       .  S
C465        O466   1.279       .  A
C465        C518   1.453       .  S
O466       Cr482   2.051       .  S
O467        C468   1.253       .  A
O467       Cr482   1.957       .  S
C468        O469   1.263       .  A
O469       Cr483   2.006       .  S
O470        C471   1.257       .  A
O470       Cr483   1.959       .  S
C471        C490   1.451       .  S
O472        C480   1.268       .  A
O472       Cr481   1.998       .  S
O473        C474   1.264       .  A
O473       Cr481   2.055       .  S
C474        O475   1.250       .  A
C474        C540   1.482       .  S
O475       Cr482   1.949       .  S
O476        C477   1.276       .  A
O476       Cr482   2.059       .  S
C477        O478   1.257       .  A
O478       Cr483   1.973       .  S
O479        C480   1.260       .  A
O479       Cr483   1.997       .  S
C480        C515   1.453       .  S
Cr481       O484   1.787       .  S
Cr482       O484   1.763       .  S
Cr483       O484   1.755       .  S
O485        C493   1.256       .  A
O485       Cr503   1.936       .  S
O486        C487   1.274       .  A
O486       Cr503   2.032       .  S
C487        O488   1.257       .  A
O488       Cr504   1.959       .  S
O489        C490   1.263       .  A
O489       Cr504   2.006       .  S
C490        O491   1.253       .  A
O491       Cr505   1.958       .  S
O492        C493   1.279       .  A
O492       Cr505   2.051       .  S
O494        C502   1.264       .  A
O494       Cr503   2.055       .  S
O495        C496   1.268       .  A
O495       Cr503   1.998       .  S
C496        O497   1.260       .  A
O497       Cr504   1.997       .  S
O498        C499   1.257       .  A
O498       Cr504   1.973       .  S
C499        O500   1.276       .  A
C499        C521   1.478       .  S
O500       Cr505   2.059       .  S
O501        C502   1.250       .  A
O501       Cr505   1.949       .  S
C502        C612   1.482       .  S
Cr503       O506   1.787       .  S
Cr504       O506   1.755       .  S
Cr505       O506   1.763       .  S
O507        C515   1.256       .  A
O508        C509   1.274       .  A
O508       Cr525   2.032       .  S
C509        O510   1.257       .  A
O510       Cr526   1.959       .  S
O511        C512   1.263       .  A
O511       Cr526   2.006       .  S
O514        C515   1.279       .  A
O516        C524   1.264       .  A
O516       Cr525   2.055       .  S
O517        C518   1.268       .  A
O517       Cr525   1.998       .  S
C518        O519   1.260       .  A
O519       Cr526   1.997       .  S
O520        C521   1.257       .  A
O520       Cr526   1.973       .  S
C521        O522   1.276       .  A
O522       Cr527   2.059       .  S
O523        C524   1.250       .  A
O523       Cr527   1.949       .  S
Cr525       O528   1.787       .  S
Cr526       O528   1.755       .  S
Cr527       O528   1.763       .  S
O529        C537   1.274       .  A
O529      Cr1955   2.032       .  S
O530        C531   1.256       .  A
O530       Cr547   1.936       .  S
C531        O532   1.279       .  A
C531        C672   1.453       .  S
O532       Cr548   2.051       .  S
O533        C534   1.253       .  A
O533       Cr548   1.957       .  S
C534        O535   1.263       .  A
C534        C597   1.451       .  S
O535       Cr549   2.006       .  S
O536        C537   1.257       .  A
O536      Cr1957   1.959       .  S
C537        C688   1.451       .  S
O538        C546   1.268   1_455  A
O538       Cr547   1.998       .  S
O539        C540   1.264       .  A
O539       Cr547   2.055       .  S
C540        O541   1.250       .  A
O541       Cr548   1.949       .  S
O542        C543   1.276       .  A
O542       Cr548   2.059       .  S
C543        O544   1.257       .  A
C543        C565   1.478       .  S
O544       Cr549   1.973       .  S
O545        C546   1.260       .  A
O545       Cr549   1.997   1_655  S
C546       C2077   1.453       .  S
Cr547      O1937   2.032   1_455  S
Cr547       O550   1.787       .  S
Cr548       O550   1.763       .  S
Cr549      O1944   1.959   1_455  S
Cr549       O550   1.755       .  S
O551        C559   1.274       .  A
O551       Cr569   2.032       .  S
O552        C553   1.256   1_565  A
O552       Cr921   1.936   1_556  S
C553        O554   1.279       .  A
C553       C1310   1.453       .  S
C556        O557   1.263       .  A
C556        C663   1.451       .  S
O557       Cr571   2.006       .  S
O558        C559   1.257       .  A
O558      Cr1275   1.959       .  S
C559        C578   1.451       .  S
O560        C568   1.268       .  A
O560       Cr569   1.998       .  S
O561        C562   1.264       .  A
O561      Cr1273   2.055   1_545  S
C562        O563   1.250       .  A
O563       Cr570   1.949       .  S
O564        C565   1.276       .  A
O564       Cr570   2.059       .  S
C565        O566   1.257       .  A
O566       Cr571   1.973       .  S
O567       C1272   1.260       .  A
O567       Cr571   1.997   1_565  S
C568       O1271   1.260       .  A
C568        C603   1.453       .  S
Cr569       O904   1.936       .  S
Cr569      O1265   2.055       .  S
Cr569      O1276   1.787       .  S
Cr570       O572   1.763       .  S
Cr571      O1262   1.959   1_545  S
Cr571       O572   1.755       .  S
O572      Cr1273   1.787   1_545  S
O573        C581   1.256       .  A
O574        C575   1.274       .  A
O574      Cr1647   2.032       .  S
C575        C644   1.451       .  S
O576      Cr2000   1.959       .  S
O577       Cr592   2.006       .  S
C578        O579   1.253       .  A
O579       Cr593   1.958       .  S
O580        C581   1.279       .  A
O580       Cr593   2.051       .  S
C581        C634   1.453       .  S
O582        C590   1.264   1_554  A
O582       Cr591   2.055   1_554  S
O583        C584   1.268   1_455  A
O583       Cr591   1.998       .  S
C584        O585   1.260       .  A
C584       C2027   1.453       .  S
O585       Cr592   1.997   1_655  S
O586        C587   1.257       .  A
O586       Cr592   1.973       .  S
C587        O588   1.276       .  A
C587        C609   1.478       .  S
O589       Cr593   1.949       .  S
Cr591      O1630   2.032   1_455  S
Cr591       O594   1.787       .  S
Cr592      O1984   1.959   1_455  S
Cr592       O594   1.755       .  S
O595        C603   1.256       .  A
O595       Cr613   1.936       .  S
O596        C597   1.274       .  A
O596      Cr1317   2.032   1_545  S
C597        O598   1.257       .  A
O598      Cr1318   1.959   1_545  S
O599        C600   1.263       .  A
O599       Cr614   2.006       .  S
C600        O601   1.253       .  A
C600        C625   1.451       .  S
O601       Cr615   1.957       .  S
O602        C603   1.279       .  A
O602       Cr615   2.052       .  S
O604        C612   1.264       .  A
O604       Cr613   2.055       .  S
O605        C606   1.268       .  A
O605       Cr613   1.998       .  S
C606        O607   1.260       .  A
C606       C1257   1.453       .  S
O607       Cr614   1.997       .  S
O608        C609   1.257       .  A
O608       Cr614   1.973       .  S
C609        O610   1.276       .  A
O610       Cr615   2.059       .  S
O611        C612   1.250       .  A
O611       Cr615   1.949       .  S
Cr613      O1300   2.032       .  S
Cr613       O616   1.787       .  S
Cr614      O1302   1.959       .  S
Cr614       O616   1.755       .  S
Cr615       O616   1.763       .  S
O617        C625   1.274       .  A
O617       Cr635   2.032       .  S
O618        C619   1.256       .  A
O618      Cr2043   1.936       .  S
C619        O620   1.279       .  A
C619       C1992   1.453       .  S
O620       Cr636   2.051       .  S
O621        C622   1.253       .  A
O621       Cr636   1.957       .  S
C622        O623   1.263       .  A
C622        C685   1.451       .  S
O623       Cr637   2.006       .  S
O624        C625   1.257       .  A
O624      Cr2045   1.959   1_455  S
O626        C634   1.268       .  A
O626       Cr635   1.998       .  S
O627        C628   1.264       .  A
O627      Cr2043   2.055       .  S
C628        O629   1.250       .  A
O629       Cr636   1.949       .  S
O630        C631   1.276       .  A
O630       Cr636   2.059       .  S
C631        O632   1.257       .  A
C631        C653   1.478       .  S
O632       Cr637   1.973       .  S
O633       C2042   1.260       .  A
O633       Cr637   1.997       .  S
C634       O2041   1.260       .  A
Cr635      O2026   1.936       .  S
Cr635      O2035   2.055   1_455  S
Cr635      O2046   1.787   1_455  S
Cr636       O638   1.763       .  S
Cr637      O2032   1.959       .  S
Cr637       O638   1.755       .  S
O638      Cr2043   1.787       .  S
O639        C647   1.274       .  A
O639      Cr1361   2.032   1_545  S
O640        C641   1.256       .  A
C641        O642   1.279       .  A
C641        C694   1.453       .  S
C644        O645   1.263       .  A
O645       Cr659   2.006       .  S
O646        C647   1.257       .  A
O646      Cr1363   1.959   1_545  S
C647        C666   1.451       .  S
O648        C656   1.268       .  A
O648       Cr657   1.998       .  S
O649        C650   1.264       .  A
O649       Cr657   2.055       .  S
C650        O651   1.250       .  A
O651       Cr658   1.949       .  S
O652        C653   1.276       .  A
O652       Cr658   2.059       .  S
C653        O654   1.257       .  A
O654       Cr659   1.973       .  S
O655        C656   1.260       .  A
O655       Cr659   1.997       .  S
C656       C1395   1.453       .  S
Cr657      O1343   2.032       .  S
Cr657       O660   1.787       .  S
Cr658       O660   1.763       .  S
Cr659      O1350   1.959       .  S
Cr659       O660   1.755       .  S
O661        C669   1.256       .  A
O661      Cr2087   1.936       .  S
O662        C663   1.274       .  A
O662       Cr679   2.032       .  S
O664      Cr2088   1.959   1_455  S
O665       Cr680   2.006       .  S
C666        O667   1.253       .  A
O667       Cr681   1.958       .  S
O668        C669   1.279       .  A
O668       Cr681   2.051       .  S
C669       C1954   1.453       .  S
O670        C678   1.264   1_554  A
O670      Cr1735   2.055   1_554  S
O671        C672   1.268       .  A
C672       O2081   1.260       .  A
O673       C2080   1.260       .  A
O673       Cr680   1.997       .  S
O674        C675   1.257       .  A
O674       Cr680   1.973       .  S
C675        O676   1.276       .  A
C675        C697   1.478       .  S
O677       Cr681   1.949       .  S
Cr679      O2069   1.936       .  S
Cr679      O1726   2.055   1_455  S
Cr679      O1738   1.787   1_455  S
Cr680      O2072   1.959       .  S
Cr680       O682   1.755       .  S
O682      Cr1735   1.787       .  S
O683        C691   1.256   1_565  A
O683      Cr1405   1.936       .  S
O684        C685   1.274       .  A
O684       Cr701   2.032       .  S
C685        O686   1.257       .  A
O686      Cr1406   1.959       .  S
O687        C688   1.263       .  A
O687       Cr702   2.006       .  S
C688        O689   1.253       .  A
O689       Cr703   1.957       .  S
O690        C691   1.279       .  A
O690       Cr703   2.052       .  S
C691       C1360   1.453       .  S
O692        C700   1.264       .  A
O692      Cr1405   2.055   1_545  S
O693        C694   1.268       .  A
O693       Cr701   1.998       .  S
C694        O695   1.260       .  A
O695      Cr1406   1.997       .  S
O696        C697   1.257       .  A
O696       Cr702   1.973       .  S
C697        O698   1.276       .  A
O698       Cr703   2.059       .  S
O699        C700   1.250       .  A
O699       Cr703   1.949       .  S
Cr701      O1387   1.936       .  S
Cr701      O1396   2.055       .  S
Cr701      O1408   1.787       .  S
Cr702      O1390   1.959   1_545  S
Cr702      O1399   1.997   1_545  S
Cr702       O704   1.755       .  S
Cr703       O704   1.763       .  S
O704      Cr1405   1.787   1_545  S
O705        C713   1.274       .  A
O705      Cr1075   2.032       .  S
O706        C707   1.256       .  A
O706      Cr1075   1.936   1_554  S
C707        O708   1.279       .  A
C707        C848   1.453       .  S
O708       Cr724   2.051       .  S
O709        C710   1.253       .  A
O709       Cr724   1.958       .  S
C710       O1063   1.263   1_554  A
C710        C773   1.451       .  S
O711       C1062   1.263       .  A
O711       Cr725   2.006       .  S
O712       C1065   1.257       .  A
O712       Cr725   1.959       .  S
C713       O1064   1.257       .  A
C713        C864   1.451   1_556  S
O714        C722   1.268       .  A
O714       Cr723   1.998       .  S
O715        C716   1.264       .  A
O715       Cr723   2.055       .  S
C716       O1069   1.250       .  A
C716       C1354   1.482       .  S
O717       C1068   1.250       .  A
O717       Cr724   1.949   1_556  S
O718        C719   1.276       .  A
O718      Cr1076   2.059       .  S
C719        O720   1.257       .  A
C719        C741   1.478       .  S
O720       Cr725   1.973       .  S
O721        C722   1.260       .  A
O721       Cr725   1.997       .  S
C722        C845   1.453       .  S
Cr723      O1057   2.032       .  S
Cr723      O1058   1.936       .  S
Cr723       O726   1.787       .  S
Cr724      O1070   2.059   1_554  S
Cr724      O1078   1.763   1_554  S
Cr725       O726   1.755       .  S
O726      Cr1076   1.763       .  S
O727        C735   1.274       .  A
O727       Cr745   2.032       .  S
O728        C729   1.256       .  A
O728       Cr745   1.936       .  S
C729        O730   1.279       .  A
C729        C782   1.453       .  S
O730       Cr746   2.051       .  S
O731        C732   1.253       .  A
O731       Cr746   1.957       .  S
C732        O733   1.263       .  A
C732        C839   1.451       .  S
O733       Cr747   2.006       .  S
O734        C735   1.257       .  A
O734       Cr747   1.959       .  S
C735        C754   1.451       .  S
O736        C744   1.268       .  A
O736       Cr745   1.998       .  S
O737        C738   1.264       .  A
O737       Cr745   2.055       .  S
C738        O739   1.250       .  A
C738        C980   1.482       .  S
O739       Cr746   1.949       .  S
O740        C741   1.276       .  A
O740       Cr746   2.059       .  S
C741        O742   1.257       .  A
O742       Cr747   1.973       .  S
O743        C744   1.260       .  A
O743       Cr747   1.997       .  S
C744        C779   1.453       .  S
Cr745       O748   1.787       .  S
Cr746       O748   1.763       .  S
Cr747       O748   1.755       .  S
O749        C757   1.256       .  A
O749       Cr767   1.936       .  S
O750        C751   1.274       .  A
O750       Cr767   2.032       .  S
C751        O752   1.257       .  A
C751        C820   1.451       .  S
O752       Cr768   1.959       .  S
O753        C754   1.263       .  A
O753       Cr768   2.006       .  S
C754        O755   1.253       .  A
O755       Cr769   1.957       .  S
O756        C757   1.279       .  A
O756       Cr769   2.051       .  S
C757        C810   1.453       .  S
O758        C766   1.264       .  A
O758       Cr767   2.055       .  S
O759        C760   1.268       .  A
O759       Cr767   1.998       .  S
C760        O761   1.260       .  A
C760        C795   1.453       .  S
O761       Cr768   1.997       .  S
O762        C763   1.257       .  A
O762       Cr768   1.973       .  S
C763        O764   1.276       .  A
C763        C785   1.478       .  S
O764       Cr769   2.059       .  S
O765        C766   1.250       .  A
O765       Cr769   1.949       .  S
C766       C1052   1.482       .  S
Cr767       O770   1.787       .  S
Cr768       O770   1.755       .  S
Cr769       O770   1.763       .  S
O771        C779   1.256       .  A
O771      Cr1141   1.936       .  S
O772        C773   1.274       .  A
O772       Cr789   2.032       .  S
C773        O774   1.257       .  A
O774       Cr790   1.959       .  S
O775        C776   1.263       .  A
O775       Cr790   2.006       .  S
C776       O1129   1.253   1_554  A
C776        C801   1.451   1_554  S
O777       C1128   1.253       .  A
O777      Cr1143   1.957       .  S
O778        C779   1.279       .  A
O778      Cr1143   2.052       .  S
O780        C788   1.264       .  A
O780       Cr789   2.055       .  S
O781        C782   1.268       .  A
O781       Cr789   1.998       .  S
C782        O783   1.260       .  A
O783       Cr790   1.997       .  S
O784        C785   1.257       .  A
O784       Cr790   1.973       .  S
C785        O786   1.276       .  A
O786       Cr791   2.059       .  S
O787        C788   1.250       .  A
O787       Cr791   1.949       .  S
C788       C1382   1.482   1_554  S
Cr789      O1123   1.936   1_554  S
Cr789       O792   1.787       .  S
Cr790       O792   1.755       .  S
Cr791      O1129   1.957   1_554  S
Cr791      O1130   2.052   1_554  S
Cr791       O792   1.763       .  S
O793        C801   1.274       .  A
O793      Cr1163   2.032       .  S
O794        C795   1.256       .  A
O794      Cr1163   1.936   1_554  S
C795        O796   1.279       .  A
O796       Cr812   2.051       .  S
O797        C798   1.253       .  A
O797       Cr812   1.958       .  S
C798       O1151   1.263   1_554  A
C798        C861   1.451       .  S
O799       C1150   1.263       .  A
O799       Cr813   2.006       .  S
O800       C1153   1.257       .  A
O800       Cr813   1.959       .  S
C801       O1152   1.257       .  A
O802        C810   1.268       .  A
O802       Cr811   1.998       .  S
O803        C804   1.264       .  A
O803       Cr811   2.055       .  S
C804       O1157   1.250       .  A
C804       C1266   1.482       .  S
O805       C1156   1.250       .  A
O805       Cr812   1.949   1_556  S
O806        C807   1.276       .  A
O806      Cr1164   2.059       .  S
C807        O808   1.257       .  A
C807        C829   1.478       .  S
O808       Cr813   1.973       .  S
O809        C810   1.260       .  A
O809       Cr813   1.997       .  S
Cr811      O1145   2.032       .  S
Cr811      O1146   1.936       .  S
Cr811       O814   1.787       .  S
Cr812      O1158   2.059   1_554  S
Cr812      O1166   1.763   1_554  S
Cr813       O814   1.755       .  S
O814      Cr1164   1.763       .  S
O815        C823   1.274       .  A
O815       Cr833   2.032       .  S
O816        C817   1.256       .  A
O816       Cr833   1.936       .  S
C817        O818   1.279       .  A
C817        C870   1.453       .  S
O818       Cr834   2.051       .  S
O819        C820   1.253       .  A
O819       Cr834   1.957       .  S
C820        O821   1.263       .  A
O821       Cr835   2.006       .  S
O822        C823   1.257       .  A
O822       Cr835   1.959       .  S
C823        C842   1.451       .  S
O824        C832   1.268       .  A
O824       Cr833   1.998       .  S
O825        C826   1.264       .  A
O825       Cr833   2.055       .  S
C826        O827   1.250       .  A
C826        C892   1.482       .  S
O827       Cr834   1.949       .  S
O828        C829   1.276       .  A
O828       Cr834   2.059       .  S
C829        O830   1.257       .  A
O830       Cr835   1.973       .  S
O831        C832   1.260       .  A
O831       Cr835   1.997       .  S
C832        C867   1.453       .  S
Cr833       O836   1.787       .  S
Cr834       O836   1.763       .  S
Cr835       O836   1.755       .  S
O837        C845   1.256       .  A
O837       Cr855   1.936       .  S
O838        C839   1.274       .  A
O838       Cr855   2.032       .  S
C839        O840   1.257       .  A
O840       Cr856   1.959       .  S
O841        C842   1.263       .  A
O841       Cr856   2.006       .  S
C842        O843   1.253       .  A
O843       Cr857   1.958       .  S
O844        C845   1.279       .  A
O844       Cr857   2.051       .  S
O846        C854   1.264       .  A
O846       Cr855   2.055       .  S
O847        C848   1.268       .  A
O847       Cr855   1.998       .  S
C848        O849   1.260       .  A
O849       Cr856   1.997       .  S
O850        C851   1.257       .  A
O850       Cr856   1.973       .  S
C851        O852   1.276       .  A
C851        C873   1.478       .  S
O852       Cr857   2.059       .  S
O853        C854   1.250       .  A
O853       Cr857   1.949       .  S
C854        C964   1.482       .  S
Cr855       O858   1.787       .  S
Cr856       O858   1.755       .  S
Cr857       O858   1.763       .  S
O859        C867   1.256       .  A
O859      Cr1229   1.936       .  S
O860        C861   1.274       .  A
O860       Cr877   2.032       .  S
C861        O862   1.257       .  A
O862       Cr878   1.959       .  S
O863        C864   1.263       .  A
O863       Cr878   2.006       .  S
C864       O1217   1.253   1_554  A
O865       C1216   1.253       .  A
O865      Cr1231   1.957       .  S
O866        C867   1.279       .  A
O866      Cr1231   2.051       .  S
O868        C876   1.264       .  A
O868       Cr877   2.055       .  S
O869        C870   1.268       .  A
O869       Cr877   1.998       .  S
C870        O871   1.260       .  A
O871       Cr878   1.997       .  S
O872        C873   1.257       .  A
O872       Cr878   1.973       .  S
C873        O874   1.276       .  A
O874       Cr879   2.059       .  S
O875        C876   1.250       .  A
O875       Cr879   1.949       .  S
C876       C1294   1.482   1_554  S
Cr877      O1211   1.936   1_554  S
Cr877       O880   1.787       .  S
Cr878       O880   1.755       .  S
Cr879      O1217   1.957   1_554  S
Cr879      O1218   2.051   1_554  S
Cr879       O880   1.763       .  S
O881        C889   1.274       .  A
O881      Cr2307   2.032       .  S
O882        C883   1.256       .  A
O882       Cr899   1.936       .  S
C883        O884   1.279       .  A
C883       C1024   1.453       .  S
O884       Cr900   2.051       .  S
O885        C886   1.253       .  A
O885       Cr900   1.957       .  S
C886        O887   1.263       .  A
C886        C949   1.451       .  S
O887       Cr901   2.006       .  S
O888        C889   1.257       .  A
O888      Cr2309   1.959       .  S
C889       C1040   1.451       .  S
O890        C898   1.268   1_455  A
O890       Cr899   1.998       .  S
O891        C892   1.264       .  A
O891       Cr899   2.055       .  S
C892        O893   1.250       .  A
O893       Cr900   1.949       .  S
O894        C895   1.276       .  A
O894       Cr900   2.059       .  S
C895        O896   1.257       .  A
C895        C917   1.478       .  S
O896       Cr901   1.973       .  S
O897        C898   1.260       .  A
O897       Cr901   1.997   1_655  S
C898       C2429   1.453       .  S
Cr899      O2289   2.032   1_455  S
Cr899       O902   1.787       .  S
Cr900       O902   1.763       .  S
Cr901      O2296   1.959   1_455  S
Cr901       O902   1.755       .  S
O903        C911   1.274       .  A
O903       Cr921   2.032       .  S
O904        C905   1.256       .  A
C905        O906   1.279       .  A
O906      Cr1274   2.051       .  S
O907       C1260   1.253       .  A
O907      Cr1274   1.957       .  S
C908       O1259   1.253   1_554  A
C908        O909   1.263       .  A
C908       C1015   1.451   1_554  S
O909       Cr923   2.006       .  S
O910        C911   1.257       .  A
C911        C930   1.451       .  S
O912        C920   1.268       .  A
O912       Cr921   1.998       .  S
O913        C914   1.264       .  A
C914        O915   1.250       .  A
C914       C1156   1.482   1_554  S
O915       Cr922   1.949       .  S
O916        C917   1.276       .  A
O916       Cr922   2.059       .  S
C917        O918   1.257       .  A
O918       Cr923   1.973       .  S
O919       Cr923   1.997       .  S
C920        C955   1.453       .  S
Cr922      O1258   2.051   1_554  S
Cr922      O1259   1.957   1_554  S
Cr922       O924   1.763       .  S
Cr923       O924   1.755       .  S
O925        C933   1.256       .  A
O925      Cr1295   1.936   1_554  S
O926        C927   1.274       .  A
O926      Cr2703   2.032       .  S
C927       O1280   1.257       .  A
C927        C996   1.451   1_556  S
O928       C1279   1.257       .  A
O928      Cr2352   1.959       .  S
O929       C1282   1.263       .  A
O929       Cr944   2.006       .  S
C930       O1281   1.263   1_554  A
C930        O931   1.253       .  A
O931       Cr945   1.958       .  S
O932        C933   1.279       .  A
O932       Cr945   2.051       .  S
C933        C986   1.453       .  S
O934        C942   1.264       .  A
O934       Cr943   2.055       .  S
O935        C936   1.268   1_455  A
O935       Cr943   1.998       .  S
C936        O937   1.260       .  A
C936       C2379   1.453       .  S
O937       Cr944   1.997   1_655  S
O938        C939   1.257       .  A
O938       Cr944   1.973       .  S
C939        O940   1.276       .  A
C939        C961   1.478       .  S
O940      Cr1297   2.059       .  S
O941       C1294   1.250       .  A
O941       Cr945   1.949   1_556  S
C942       O1293   1.250       .  A
C942       C1228   1.482       .  S
Cr943      O1277   1.936       .  S
Cr943      O2686   2.032   1_455  S
Cr943       O946   1.787       .  S
Cr944      O2336   1.959   1_455  S
Cr944       O946   1.755       .  S
Cr945      O1292   2.059   1_554  S
Cr945      O1298   1.763   1_554  S
O946      Cr1297   1.763       .  S
O947        C955   1.256       .  A
O947       Cr965   1.936       .  S
O948        C949   1.274       .  A
C949        O950   1.257       .  A
O951        C952   1.263       .  A
O951       Cr966   2.006       .  S
C952        O953   1.253       .  A
C952        C977   1.451       .  S
O953       Cr967   1.957       .  S
O954        C955   1.279       .  A
O954       Cr967   2.052       .  S
O956        C964   1.264       .  A
O956       Cr965   2.055       .  S
O957        C958   1.268   1_565  A
O957       Cr965   1.998       .  S
C958        O959   1.260       .  A
O959       Cr966   1.997   1_545  S
O960        C961   1.257       .  A
O960       Cr966   1.973       .  S
C961        O962   1.276       .  A
O962       Cr967   2.059       .  S
O963        C964   1.250       .  A
O963       Cr967   1.949       .  S
Cr965       O968   1.787       .  S
Cr966       O968   1.755       .  S
Cr967       O968   1.763       .  S
O969        C977   1.274       .  A
O969       Cr987   2.032       .  S
O970        C971   1.256       .  A
O970      Cr2395   1.936       .  S
C971        O972   1.279       .  A
C971       C2344   1.453       .  S
O972       Cr988   2.051       .  S
O973        C974   1.253       .  A
O973       Cr988   1.957       .  S
C974        O975   1.263       .  A
C974       C1037   1.451       .  S
O975       Cr989   2.006       .  S
O976        C977   1.257       .  A
O976      Cr2397   1.959   1_455  S
O978        C986   1.268       .  A
O978       Cr987   1.998       .  S
O979        C980   1.264       .  A
O979      Cr2395   2.055       .  S
C980        O981   1.250       .  A
O981       Cr988   1.949       .  S
O982        C983   1.276       .  A
O982       Cr988   2.059       .  S
C983        O984   1.257       .  A
C983       C1005   1.478       .  S
O984       Cr989   1.973       .  S
O985       C2394   1.260       .  A
O985       Cr989   1.997       .  S
C986       O2393   1.260       .  A
Cr987      O2378   1.936       .  S
Cr987      O2387   2.055   1_455  S
Cr987      O2398   1.787   1_455  S
Cr988       O990   1.763       .  S
Cr989      O2384   1.959       .  S
Cr989       O990   1.755       .  S
O990      Cr2395   1.787       .  S
O991        C999   1.274       .  A
O992        C993   1.256       .  A
O992      Cr1361   1.936       .  S
C993        O994   1.279       .  A
C993       C1046   1.453       .  S
O994      Cr1362   2.052       .  S
O995       C1348   1.253       .  A
O995      Cr1362   1.957       .  S
C996       O1347   1.253   1_554  A
C996        O997   1.263       .  A
O997      Cr1011   2.006       .  S
O998        C999   1.257       .  A
C999       C1018   1.451       .  S
O1000      C1008   1.268   1_565  A
O1000     Cr1009   1.998       .  S
O1001      C1002   1.264       .  A
O1001     Cr1009   2.055       .  S
C1002      O1003   1.250       .  A
C1002      C1068   1.482   1_554  S
O1003     Cr1010   1.949       .  S
O1004      C1005   1.276       .  A
O1004     Cr1010   2.059       .  S
C1005      O1006   1.257       .  A
O1006     Cr1011   1.973       .  S
O1007      C1008   1.260       .  A
O1007     Cr1011   1.997   1_545  S
Cr1009     O1344   1.936   1_554  S
Cr1009     O1012   1.787       .  S
Cr1010     O1346   2.052   1_554  S
Cr1010     O1347   1.957   1_554  S
Cr1010     O1012   1.763       .  S
Cr1011     O1012   1.755       .  S
O1013      C1021   1.256       .  A
O1013     Cr2439   1.936   1_554  S
O1014      C1015   1.274       .  A
O1014     Cr1031   2.032       .  S
C1015      O1368   1.257       .  A
O1016      C1367   1.257       .  A
O1016     Cr2440   1.959   1_455  S
O1017      C1370   1.263       .  A
O1017     Cr1032   2.006       .  S
C1018      O1369   1.263   1_554  A
C1018      O1019   1.253       .  A
O1019     Cr1033   1.958       .  S
O1020      C1021   1.279       .  A
O1020     Cr1033   2.051       .  S
C1021      C2306   1.453       .  S
O1022      C1030   1.264       .  A
O1022     Cr2791   2.055       .  S
O1023      C1024   1.268       .  A
O1023     Cr1383   1.998       .  S
C1024      O2433   1.260       .  A
O1025      C2432   1.260       .  A
O1025     Cr1032   1.997       .  S
O1026      C1027   1.257       .  A
O1026     Cr1032   1.973       .  S
C1027      O1028   1.276       .  A
C1027      C1049   1.478       .  S
O1028     Cr1385   2.059       .  S
O1029      C1382   1.250       .  A
O1029     Cr1033   1.949   1_556  S
C1030      O1381   1.250       .  A
C1030      C1140   1.482       .  S
Cr1031     O2421   1.936   1_556  S
Cr1031     O2782   2.055   1_456  S
Cr1031     O1375   1.998       .  S
Cr1031     O2794   1.787   1_455  S
Cr1032     O2424   1.959       .  S
Cr1032     O1034   1.755       .  S
Cr1033     O1380   2.059   1_554  S
Cr1033     O1386   1.763   1_554  S
O1034     Cr2791   1.787       .  S
O1034     Cr1385   1.763       .  S
O1035      C1043   1.256       .  A
O1036      C1037   1.274       .  A
O1036     Cr1053   2.032       .  S
C1037      O1038   1.257       .  A
O1039      C1040   1.263       .  A
O1039     Cr1054   2.006       .  S
C1040      O1041   1.253       .  A
O1041     Cr1055   1.957       .  S
O1042      C1043   1.279       .  A
O1042     Cr1055   2.051       .  S
O1044      C1052   1.264       .  A
O1045      C1046   1.268       .  A
O1045     Cr1053   1.998       .  S
C1046      O1047   1.260       .  A
O1048      C1049   1.257       .  A
O1048     Cr1054   1.973       .  S
C1049      O1050   1.276       .  A
O1050     Cr1055   2.059       .  S
O1051      C1052   1.250       .  A
O1051     Cr1055   1.949       .  S
Cr1054     O1056   1.755       .  S
Cr1055     O1056   1.763       .  S
O1057      C1065   1.274       .  A
O1058      C1059   1.256       .  A
C1059      O1060   1.279       .  A
C1059      C1200   1.453       .  S
O1060     Cr1076   2.051       .  S
O1061      C1062   1.253       .  A
O1061     Cr1076   1.958       .  S
C1062      C1125   1.451       .  S
O1063     Cr1077   2.006       .  S
O1064     Cr1077   1.959       .  S
C1065      C1216   1.451       .  S
O1066      C1074   1.268       .  A
O1066     Cr1075   1.998       .  S
O1067      C1068   1.264   1_554  A
O1067     Cr1075   2.055   1_554  S
O1069     Cr1076   1.949       .  S
O1070      C1071   1.276       .  A
C1071      O1072   1.257       .  A
C1071      C1093   1.478       .  S
O1072     Cr1077   1.973       .  S
O1073      C1074   1.260       .  A
O1073     Cr1077   1.997       .  S
C1074      C1197   1.453       .  S
Cr1075     O1078   1.787       .  S
Cr1077     O1078   1.755       .  S
O1079      C1087   1.274       .  A
O1079     Cr1097   2.032       .  S
O1080      C1081   1.256       .  A
O1080     Cr1097   1.936       .  S
C1081      O1082   1.279       .  A
C1081      C1134   1.453       .  S
O1082     Cr1098   2.051       .  S
O1083      C1084   1.253       .  A
O1083     Cr1098   1.957       .  S
C1084      O1085   1.263       .  A
C1084      C1191   1.451       .  S
O1085     Cr1099   2.006       .  S
O1086      C1087   1.257       .  A
O1086     Cr1099   1.959       .  S
C1087      C1106   1.451       .  S
O1088      C1096   1.268       .  A
O1088     Cr1097   1.998       .  S
O1089      C1090   1.264       .  A
O1089     Cr1097   2.055       .  S
C1090      O1091   1.250       .  A
C1090      C1332   1.482       .  S
O1091     Cr1098   1.949       .  S
O1092      C1093   1.276       .  A
O1092     Cr1098   2.059       .  S
C1093      O1094   1.257       .  A
O1094     Cr1099   1.973       .  S
O1095      C1096   1.260       .  A
O1095     Cr1099   1.997       .  S
C1096      C1131   1.453       .  S
Cr1097     O1100   1.787       .  S
Cr1098     O1100   1.763       .  S
Cr1099     O1100   1.755       .  S
O1101      C1109   1.256       .  A
O1101     Cr1119   1.936       .  S
O1102      C1103   1.274       .  A
O1102     Cr1119   2.032       .  S
C1103      O1104   1.257       .  A
C1103      C1172   1.451       .  S
O1104     Cr1120   1.959       .  S
O1105      C1106   1.263       .  A
O1105     Cr1120   2.006       .  S
C1106      O1107   1.253       .  A
O1107     Cr1121   1.957       .  S
O1108      C1109   1.279       .  A
O1108     Cr1121   2.051       .  S
C1109      C1162   1.453       .  S
O1110      C1118   1.264       .  A
O1110     Cr1119   2.055       .  S
O1111      C1112   1.268       .  A
O1111     Cr1119   1.998       .  S
C1112      O1113   1.260       .  A
C1112      C1147   1.453       .  S
O1113     Cr1120   1.997       .  S
O1114      C1115   1.257       .  A
O1114     Cr1120   1.973       .  S
C1115      O1116   1.276       .  A
C1115      C1137   1.478       .  S
O1116     Cr1121   2.059       .  S
O1117      C1118   1.250       .  A
O1117     Cr1121   1.949       .  S
C1118      C1404   1.482       .  S
Cr1119     O1122   1.787       .  S
Cr1120     O1122   1.755       .  S
Cr1121     O1122   1.763       .  S
O1123      C1131   1.256       .  A
O1124      C1125   1.274       .  A
O1124     Cr1141   2.032       .  S
C1125      O1126   1.257       .  A
O1126     Cr1142   1.959       .  S
O1127      C1128   1.263       .  A
O1127     Cr1142   2.006       .  S
C1128      C1153   1.451       .  S
O1130      C1131   1.279       .  A
O1132      C1140   1.264       .  A
O1132     Cr1141   2.055       .  S
O1133      C1134   1.268       .  A
O1133     Cr1141   1.998       .  S
C1134      O1135   1.260       .  A
O1135     Cr1142   1.997       .  S
O1136      C1137   1.257       .  A
O1136     Cr1142   1.973       .  S
C1137      O1138   1.276       .  A
O1138     Cr1143   2.059       .  S
O1139      C1140   1.250       .  A
O1139     Cr1143   1.949       .  S
Cr1141     O1144   1.787       .  S
Cr1142     O1144   1.755       .  S
Cr1143     O1144   1.763       .  S
O1145      C1153   1.274       .  A
O1146      C1147   1.256       .  A
C1147      O1148   1.279       .  A
O1148     Cr1164   2.051       .  S
O1149      C1150   1.253       .  A
O1149     Cr1164   1.958       .  S
C1150      C1213   1.451       .  S
O1151     Cr1165   2.006       .  S
O1152     Cr1165   1.959       .  S
O1154      C1162   1.268       .  A
O1154     Cr1163   1.998       .  S
O1155      C1156   1.264   1_554  A
O1155     Cr1163   2.055   1_554  S
O1157     Cr1164   1.949       .  S
O1158      C1159   1.276       .  A
C1159      O1160   1.257       .  A
C1159      C1181   1.478       .  S
O1160     Cr1165   1.973       .  S
O1161      C1162   1.260       .  A
O1161     Cr1165   1.997       .  S
Cr1163     O1166   1.787       .  S
Cr1165     O1166   1.755       .  S
O1167      C1175   1.274       .  A
O1167     Cr1185   2.032       .  S
O1168      C1169   1.256       .  A
O1168     Cr1185   1.936       .  S
C1169      O1170   1.279       .  A
C1169      C1222   1.453       .  S
O1170     Cr1186   2.051       .  S
O1171      C1172   1.253       .  A
O1171     Cr1186   1.957       .  S
C1172      O1173   1.263       .  A
O1173     Cr1187   2.006       .  S
O1174      C1175   1.257       .  A
O1174     Cr1187   1.959       .  S
C1175      C1194   1.451       .  S
O1176      C1184   1.268       .  A
O1176     Cr1185   1.998       .  S
O1177      C1178   1.264       .  A
O1177     Cr1185   2.055       .  S
C1178      O1179   1.250       .  A
C1178      C1244   1.482       .  S
O1179     Cr1186   1.949       .  S
O1180      C1181   1.276       .  A
O1180     Cr1186   2.059       .  S
C1181      O1182   1.257       .  A
O1182     Cr1187   1.973       .  S
O1183      C1184   1.260       .  A
O1183     Cr1187   1.997       .  S
C1184      C1219   1.453       .  S
Cr1185     O1188   1.787       .  S
Cr1186     O1188   1.763       .  S
Cr1187     O1188   1.755       .  S
O1189      C1197   1.256       .  A
O1189     Cr1207   1.936       .  S
O1190      C1191   1.274       .  A
O1190     Cr1207   2.032       .  S
C1191      O1192   1.257       .  A
O1192     Cr1208   1.959       .  S
O1193      C1194   1.263       .  A
O1193     Cr1208   2.006       .  S
C1194      O1195   1.253       .  A
O1195     Cr1209   1.958       .  S
O1196      C1197   1.279       .  A
O1196     Cr1209   2.051       .  S
O1198      C1206   1.264       .  A
O1198     Cr1207   2.055       .  S
O1199      C1200   1.268       .  A
O1199     Cr1207   1.998       .  S
C1200      O1201   1.260       .  A
O1201     Cr1208   1.997       .  S
O1202      C1203   1.257       .  A
O1202     Cr1208   1.973       .  S
C1203      O1204   1.276       .  A
C1203      C1225   1.478       .  S
O1204     Cr1209   2.059       .  S
O1205      C1206   1.250       .  A
O1205     Cr1209   1.949       .  S
C1206      C1316   1.482       .  S
Cr1207     O1210   1.787       .  S
Cr1208     O1210   1.755       .  S
Cr1209     O1210   1.763       .  S
O1211      C1219   1.256       .  A
O1212      C1213   1.274       .  A
O1212     Cr1229   2.032       .  S
C1213      O1214   1.257       .  A
O1214     Cr1230   1.959       .  S
O1215      C1216   1.263       .  A
O1215     Cr1230   2.006       .  S
O1218      C1219   1.279       .  A
O1220      C1228   1.264       .  A
O1220     Cr1229   2.055       .  S
O1221      C1222   1.268       .  A
O1221     Cr1229   1.998       .  S
C1222      O1223   1.260       .  A
O1223     Cr1230   1.997       .  S
O1224      C1225   1.257       .  A
O1224     Cr1230   1.973       .  S
C1225      O1226   1.276       .  A
O1226     Cr1231   2.059       .  S
O1227      C1228   1.250       .  A
O1227     Cr1231   1.949       .  S
Cr1229     O1232   1.787       .  S
Cr1230     O1232   1.755       .  S
Cr1231     O1232   1.763       .  S
O1233      C1241   1.274       .  A
O1233     Cr2659   2.032       .  S
O1234      C1235   1.256       .  A
O1234     Cr1251   1.936       .  S
C1235      O1236   1.279       .  A
C1235      C1376   1.453       .  S
O1236     Cr1252   2.051       .  S
O1237      C1238   1.253       .  A
O1237     Cr1252   1.957       .  S
C1238      O1239   1.263       .  A
C1238      C1301   1.451       .  S
O1239     Cr1253   2.006       .  S
O1240      C1241   1.257       .  A
O1240     Cr2661   1.959       .  S
C1241      C1392   1.451       .  S
O1242      C1250   1.268   1_455  A
O1242     Cr1251   1.998       .  S
O1243      C1244   1.264       .  A
O1243     Cr1251   2.055       .  S
C1244      O1245   1.250       .  A
O1245     Cr1252   1.949       .  S
O1246      C1247   1.276       .  A
O1246     Cr1252   2.059       .  S
C1247      O1248   1.257       .  A
C1247      C1269   1.478       .  S
O1248     Cr1253   1.973       .  S
O1249      C1250   1.260       .  A
O1249     Cr1253   1.997   1_655  S
C1250      C2781   1.453       .  S
Cr1251     O2641   2.032   1_455  S
Cr1251     O1254   1.787       .  S
Cr1252     O1254   1.763       .  S
Cr1253     O2648   1.959   1_455  S
Cr1253     O1254   1.755       .  S
O1255      C1263   1.274       .  A
O1255     Cr1273   2.032       .  S
O1256      C1257   1.256       .  A
C1257      O1258   1.279       .  A
C1260      O1261   1.263       .  A
C1260      C1367   1.451       .  S
O1261     Cr1275   2.006       .  S
O1262      C1263   1.257       .  A
C1263      C1282   1.451       .  S
O1264      C1272   1.268       .  A
O1264     Cr1273   1.998       .  S
O1265      C1266   1.264       .  A
C1266      O1267   1.250       .  A
O1267     Cr1274   1.949       .  S
O1268      C1269   1.276       .  A
O1268     Cr1274   2.059       .  S
C1269      O1270   1.257       .  A
O1270     Cr1275   1.973       .  S
O1271     Cr1275   1.997       .  S
C1272      C1307   1.453       .  S
Cr1274     O1276   1.763       .  S
Cr1275     O1276   1.755       .  S
O1277      C1285   1.256       .  A
O1278      C1279   1.274       .  A
O1278     Cr2351   2.032       .  S
C1279      C1348   1.451       .  S
O1280     Cr2704   1.959       .  S
O1281     Cr1296   2.006       .  S
C1282      O1283   1.253       .  A
O1283     Cr1297   1.958       .  S
O1284      C1285   1.279       .  A
O1284     Cr1297   2.051       .  S
C1285      C1338   1.453       .  S
O1286      C1294   1.264   1_554  A
O1286     Cr1295   2.055   1_554  S
O1287      C1288   1.268   1_455  A
O1287     Cr1295   1.998       .  S
C1288      O1289   1.260       .  A
C1288      C2731   1.453       .  S
O1289     Cr1296   1.997   1_655  S
O1290      C1291   1.257       .  A
O1290     Cr1296   1.973       .  S
C1291      O1292   1.276       .  A
C1291      C1313   1.478       .  S
O1293     Cr1297   1.949       .  S
Cr1295     O2334   2.032   1_455  S
Cr1295     O1298   1.787       .  S
Cr1296     O2688   1.959   1_455  S
Cr1296     O1298   1.755       .  S
O1299      C1307   1.256       .  A
O1299     Cr1317   1.936       .  S
O1300      C1301   1.274       .  A
C1301      O1302   1.257       .  A
O1303      C1304   1.263       .  A
O1303     Cr1318   2.006       .  S
C1304      O1305   1.253       .  A
C1304      C1329   1.451       .  S
O1305     Cr1319   1.957       .  S
O1306      C1307   1.279       .  A
O1306     Cr1319   2.052       .  S
O1308      C1316   1.264       .  A
O1308     Cr1317   2.055       .  S
O1309      C1310   1.268   1_565  A
O1309     Cr1317   1.998       .  S
C1310      O1311   1.260       .  A
O1311     Cr1318   1.997   1_545  S
O1312      C1313   1.257       .  A
O1312     Cr1318   1.973       .  S
C1313      O1314   1.276       .  A
O1314     Cr1319   2.059       .  S
O1315      C1316   1.250       .  A
O1315     Cr1319   1.949       .  S
Cr1317     O1320   1.787       .  S
Cr1318     O1320   1.755       .  S
Cr1319     O1320   1.763       .  S
O1321      C1329   1.274       .  A
O1321     Cr1339   2.032       .  S
O1322      C1323   1.256       .  A
O1322     Cr2747   1.936       .  S
C1323      O1324   1.279       .  A
C1323      C2696   1.453       .  S
O1324     Cr1340   2.051       .  S
O1325      C1326   1.253       .  A
O1325     Cr1340   1.957       .  S
C1326      O1327   1.263       .  A
C1326      C1389   1.451       .  S
O1327     Cr1341   2.006       .  S
O1328      C1329   1.257       .  A
O1328     Cr2749   1.959   1_455  S
O1330      C1338   1.268       .  A
O1330     Cr1339   1.998       .  S
O1331      C1332   1.264       .  A
O1331     Cr2747   2.055       .  S
C1332      O1333   1.250       .  A
O1333     Cr1340   1.949       .  S
O1334      C1335   1.276       .  A
O1334     Cr1340   2.059       .  S
C1335      O1336   1.257       .  A
C1335      C1357   1.478       .  S
O1336     Cr1341   1.973       .  S
O1337      C2746   1.260       .  A
O1337     Cr1341   1.997       .  S
C1338      O2745   1.260       .  A
Cr1339     O2730   1.936       .  S
Cr1339     O2739   2.055   1_455  S
Cr1339     O2750   1.787   1_455  S
Cr1340     O1342   1.763       .  S
Cr1341     O2736   1.959       .  S
Cr1341     O1342   1.755       .  S
O1342     Cr2747   1.787       .  S
O1343      C1351   1.274       .  A
O1344      C1345   1.256       .  A
C1345      O1346   1.279       .  A
C1345      C1398   1.453       .  S
C1348      O1349   1.263       .  A
O1349     Cr1363   2.006       .  S
O1350      C1351   1.257       .  A
C1351      C1370   1.451       .  S
O1352      C1360   1.268   1_565  A
O1352     Cr1361   1.998       .  S
O1353      C1354   1.264       .  A
O1353     Cr1361   2.055       .  S
C1354      O1355   1.250       .  A
O1355     Cr1362   1.949       .  S
O1356      C1357   1.276       .  A
O1356     Cr1362   2.059       .  S
C1357      O1358   1.257       .  A
O1358     Cr1363   1.973       .  S
O1359      C1360   1.260       .  A
O1359     Cr1363   1.997   1_545  S
Cr1361     O1364   1.787       .  S
Cr1362     O1364   1.763       .  S
Cr1363     O1364   1.755       .  S
O1365      C1373   1.256       .  A
O1365     Cr2791   1.936       .  S
O1366      C1367   1.274       .  A
O1366     Cr1383   2.032       .  S
O1368     Cr2792   1.959   1_455  S
O1369     Cr1384   2.006       .  S
C1370      O1371   1.253       .  A
O1371     Cr1385   1.958       .  S
O1372      C1373   1.279       .  A
O1372     Cr1385   2.051       .  S
C1373      C2658   1.453       .  S
O1374      C1382   1.264   1_554  A
O1374     Cr2439   2.055   1_554  S
O1375      C1376   1.268       .  A
C1376      O2785   1.260       .  A
O1377      C2784   1.260       .  A
O1377     Cr1384   1.997       .  S
O1378      C1379   1.257       .  A
O1378     Cr1384   1.973       .  S
C1379      O1380   1.276       .  A
C1379      C1401   1.478       .  S
O1381     Cr1385   1.949       .  S
Cr1383     O2773   1.936       .  S
Cr1383     O2430   2.055   1_455  S
Cr1383     O2442   1.787   1_455  S
Cr1384     O2776   1.959       .  S
Cr1384     O1386   1.755       .  S
O1386     Cr2439   1.787       .  S
O1387      C1395   1.256       .  A
O1388      C1389   1.274       .  A
O1388     Cr1405   2.032       .  S
C1389      O1390   1.257       .  A
O1391      C1392   1.263       .  A
O1391     Cr1406   2.006       .  S
C1392      O1393   1.253       .  A
O1393     Cr1407   1.957       .  S
O1394      C1395   1.279       .  A
O1394     Cr1407   2.051       .  S
O1396      C1404   1.264       .  A
O1397      C1398   1.268       .  A
O1397     Cr1405   1.998       .  S
C1398      O1399   1.260       .  A
O1400      C1401   1.257       .  A
O1400     Cr1406   1.973       .  S
C1401      O1402   1.276       .  A
O1402     Cr1407   2.059       .  S
O1403      C1404   1.250       .  A
O1403     Cr1407   1.949       .  S
Cr1406     O1408   1.755       .  S
Cr1407     O1408   1.763       .  S
O1409      C1417   1.274       .  A
O1409     Cr1779   2.032       .  S
O1410      C1411   1.256       .  A
O1410     Cr1779   1.936   1_554  S
C1411      O1412   1.279       .  A
C1411      C1552   1.453       .  S
O1412     Cr1428   2.051       .  S
O1413      C1414   1.253       .  A
O1413     Cr1428   1.958       .  S
C1414      O1767   1.263   1_554  A
C1414      C1477   1.451       .  S
O1415      C1766   1.263       .  A
O1415     Cr1429   2.006       .  S
O1416      C1769   1.257       .  A
O1416     Cr1429   1.959       .  S
C1417      O1768   1.257       .  A
C1417      C1568   1.451   1_556  S
O1418      C1426   1.268       .  A
O1418     Cr1427   1.998       .  S
O1419      C1420   1.264       .  A
O1419     Cr1427   2.055       .  S
C1420      O1773   1.250       .  A
C1420      C2058   1.482       .  S
O1421      C1772   1.250       .  A
O1421     Cr1428   1.949   1_556  S
O1422      C1423   1.276       .  A
O1422     Cr1780   2.059       .  S
C1423      O1424   1.257       .  A
C1423      C1445   1.478       .  S
O1424     Cr1429   1.973       .  S
O1425      C1426   1.260       .  A
O1425     Cr1429   1.997       .  S
C1426      C1549   1.453       .  S
Cr1427     O1761   2.032       .  S
Cr1427     O1762   1.936       .  S
Cr1427     O1430   1.787       .  S
Cr1428     O1774   2.059   1_554  S
Cr1428     O1782   1.763   1_554  S
Cr1429     O1430   1.755       .  S
O1430     Cr1780   1.763       .  S
O1431      C1439   1.274       .  A
O1431     Cr1449   2.032       .  S
O1432      C1433   1.256       .  A
O1432     Cr1449   1.936       .  S
C1433      O1434   1.279       .  A
C1433      C1486   1.453       .  S
O1434     Cr1450   2.051       .  S
O1435      C1436   1.253       .  A
O1435     Cr1450   1.957       .  S
C1436      O1437   1.263       .  A
C1436      C1543   1.451       .  S
O1437     Cr1451   2.006       .  S
O1438      C1439   1.257       .  A
O1438     Cr1451   1.959       .  S
C1439      C1458   1.451       .  S
O1440      C1448   1.268       .  A
O1440     Cr1449   1.998       .  S
O1441      C1442   1.264       .  A
O1441     Cr1449   2.055       .  S
C1442      O1443   1.250       .  A
C1442      C1684   1.482       .  S
O1443     Cr1450   1.949       .  S
O1444      C1445   1.276       .  A
O1444     Cr1450   2.059       .  S
C1445      O1446   1.257       .  A
O1446     Cr1451   1.973       .  S
O1447      C1448   1.260       .  A
O1447     Cr1451   1.997       .  S
C1448      C1483   1.453       .  S
Cr1449     O1452   1.787       .  S
Cr1450     O1452   1.763       .  S
Cr1451     O1452   1.755       .  S
O1453      C1461   1.256       .  A
O1453     Cr1471   1.936       .  S
O1454      C1455   1.274       .  A
O1454     Cr1471   2.032       .  S
C1455      O1456   1.257       .  A
C1455      C1524   1.451       .  S
O1456     Cr1472   1.959       .  S
O1457      C1458   1.263       .  A
O1457     Cr1472   2.006       .  S
C1458      O1459   1.253       .  A
O1459     Cr1473   1.957       .  S
O1460      C1461   1.279       .  A
O1460     Cr1473   2.051       .  S
C1461      C1514   1.453       .  S
O1462      C1470   1.264       .  A
O1462     Cr1471   2.055       .  S
O1463      C1464   1.268       .  A
O1463     Cr1471   1.998       .  S
C1464      O1465   1.260       .  A
C1464      C1499   1.453       .  S
O1465     Cr1472   1.997       .  S
O1466      C1467   1.257       .  A
O1466     Cr1472   1.973       .  S
C1467      O1468   1.276       .  A
C1467      C1489   1.478       .  S
O1468     Cr1473   2.059       .  S
O1469      C1470   1.250       .  A
O1469     Cr1473   1.949       .  S
C1470      C1756   1.482       .  S
Cr1471     O1474   1.787       .  S
Cr1472     O1474   1.755       .  S
Cr1473     O1474   1.763       .  S
O1475      C1483   1.256       .  A
O1475     Cr1845   1.936       .  S
O1476      C1477   1.274       .  A
O1476     Cr1493   2.032       .  S
C1477      O1478   1.257       .  A
O1478     Cr1494   1.959       .  S
O1479      C1480   1.263       .  A
O1479     Cr1494   2.006       .  S
C1480      O1833   1.253   1_554  A
C1480      C1505   1.451   1_554  S
O1481      C1832   1.253       .  A
O1481     Cr1847   1.957       .  S
O1482      C1483   1.279       .  A
O1482     Cr1847   2.052       .  S
O1484      C1492   1.264       .  A
O1484     Cr1493   2.055       .  S
O1485      C1486   1.268       .  A
O1485     Cr1493   1.998       .  S
C1486      O1487   1.260       .  A
O1487     Cr1494   1.997       .  S
O1488      C1489   1.257       .  A
O1488     Cr1494   1.973       .  S
C1489      O1490   1.276       .  A
O1490     Cr1495   2.059       .  S
O1491      C1492   1.250       .  A
O1491     Cr1495   1.949       .  S
C1492      C2086   1.482   1_554  S
Cr1493     O1827   1.936   1_554  S
Cr1493     O1496   1.787       .  S
Cr1494     O1496   1.755       .  S
Cr1495     O1833   1.957   1_554  S
Cr1495     O1834   2.052   1_554  S
Cr1495     O1496   1.763       .  S
O1497      C1505   1.274       .  A
O1497     Cr1867   2.032       .  S
O1498      C1499   1.256       .  A
O1498     Cr1867   1.936   1_554  S
C1499      O1500   1.279       .  A
O1500     Cr1516   2.051       .  S
O1501      C1502   1.253       .  A
O1501     Cr1516   1.958       .  S
C1502      O1855   1.263   1_554  A
C1502      C1565   1.451       .  S
O1503      C1854   1.263       .  A
O1503     Cr1517   2.006       .  S
O1504      C1857   1.257       .  A
O1504     Cr1517   1.959       .  S
C1505      O1856   1.257       .  A
O1506      C1514   1.268       .  A
O1506     Cr1515   1.998       .  S
O1507      C1508   1.264       .  A
O1507     Cr1515   2.055       .  S
C1508      O1861   1.250       .  A
C1508      C1970   1.482       .  S
O1509      C1860   1.250       .  A
O1509     Cr1516   1.949   1_556  S
O1510      C1511   1.276       .  A
O1510     Cr1868   2.059       .  S
C1511      O1512   1.257       .  A
C1511      C1533   1.478       .  S
O1512     Cr1517   1.973       .  S
O1513      C1514   1.260       .  A
O1513     Cr1517   1.997       .  S
Cr1515     O1849   2.032       .  S
Cr1515     O1850   1.936       .  S
Cr1515     O1518   1.787       .  S
Cr1516     O1862   2.059   1_554  S
Cr1516     O1870   1.763   1_554  S
Cr1517     O1518   1.755       .  S
O1518     Cr1868   1.763       .  S
O1519      C1527   1.274       .  A
O1519     Cr1537   2.032       .  S
O1520      C1521   1.256       .  A
O1520     Cr1537   1.936       .  S
C1521      O1522   1.279       .  A
C1521      C1574   1.453       .  S
O1522     Cr1538   2.051       .  S
O1523      C1524   1.253       .  A
O1523     Cr1538   1.957       .  S
C1524      O1525   1.263       .  A
O1525     Cr1539   2.006       .  S
O1526      C1527   1.257       .  A
O1526     Cr1539   1.959       .  S
C1527      C1546   1.451       .  S
O1528      C1536   1.268       .  A
O1528     Cr1537   1.998       .  S
O1529      C1530   1.264       .  A
O1529     Cr1537   2.055       .  S
C1530      O1531   1.250       .  A
C1530      C1596   1.482       .  S
O1531     Cr1538   1.949       .  S
O1532      C1533   1.276       .  A
O1532     Cr1538   2.059       .  S
C1533      O1534   1.257       .  A
O1534     Cr1539   1.973       .  S
O1535      C1536   1.260       .  A
O1535     Cr1539   1.997       .  S
C1536      C1571   1.453       .  S
Cr1537     O1540   1.787       .  S
Cr1538     O1540   1.763       .  S
Cr1539     O1540   1.755       .  S
O1541      C1549   1.256       .  A
O1541     Cr1559   1.936       .  S
O1542      C1543   1.274       .  A
O1542     Cr1559   2.032       .  S
C1543      O1544   1.257       .  A
O1544     Cr1560   1.959       .  S
O1545      C1546   1.263       .  A
O1545     Cr1560   2.006       .  S
C1546      O1547   1.253       .  A
O1547     Cr1561   1.958       .  S
O1548      C1549   1.279       .  A
O1548     Cr1561   2.051       .  S
O1550      C1558   1.264       .  A
O1550     Cr1559   2.055       .  S
O1551      C1552   1.268       .  A
O1551     Cr1559   1.998       .  S
C1552      O1553   1.260       .  A
O1553     Cr1560   1.997       .  S
O1554      C1555   1.257       .  A
O1554     Cr1560   1.973       .  S
C1555      O1556   1.276       .  A
C1555      C1577   1.478       .  S
O1556     Cr1561   2.059       .  S
O1557      C1558   1.250       .  A
O1557     Cr1561   1.949       .  S
C1558      C1668   1.482       .  S
Cr1559     O1562   1.787       .  S
Cr1560     O1562   1.755       .  S
Cr1561     O1562   1.763       .  S
O1563      C1571   1.256       .  A
O1563     Cr1933   1.936       .  S
O1564      C1565   1.274       .  A
O1564     Cr1581   2.032       .  S
C1565      O1566   1.257       .  A
O1566     Cr1582   1.959       .  S
O1567      C1568   1.263       .  A
O1567     Cr1582   2.006       .  S
C1568      O1921   1.253   1_554  A
O1569      C1920   1.253       .  A
O1569     Cr1935   1.957       .  S
O1570      C1571   1.279       .  A
O1570     Cr1935   2.051       .  S
O1572      C1580   1.264       .  A
O1572     Cr1581   2.055       .  S
O1573      C1574   1.268       .  A
O1573     Cr1581   1.998       .  S
C1574      O1575   1.260       .  A
O1575     Cr1582   1.997       .  S
O1576      C1577   1.257       .  A
O1576     Cr1582   1.973       .  S
C1577      O1578   1.276       .  A
O1578     Cr1583   2.059       .  S
O1579      C1580   1.250       .  A
O1579     Cr1583   1.949       .  S
C1580      C1998   1.482   1_554  S
Cr1581     O1915   1.936   1_554  S
Cr1581     O1584   1.787       .  S
Cr1582     O1584   1.755       .  S
Cr1583     O1921   1.957   1_554  S
Cr1583     O1922   2.051   1_554  S
Cr1583     O1584   1.763       .  S
O1585      C1593   1.274       .  A
O1586      C1587   1.256       .  A
O1586     Cr1603   1.936       .  S
C1587      O1588   1.279       .  A
C1587      C1728   1.453       .  S
O1588     Cr1604   2.051       .  S
O1589      C1590   1.253       .  A
O1589     Cr1604   1.957       .  S
C1590      O1591   1.263       .  A
C1590      C1653   1.451       .  S
O1591     Cr1605   2.006       .  S
O1592      C1593   1.257       .  A
C1593      C1744   1.451       .  S
O1594      C1602   1.268       .  A
O1594     Cr1603   1.998       .  S
O1595      C1596   1.264       .  A
O1595     Cr1603   2.055       .  S
C1596      O1597   1.250       .  A
O1597     Cr1604   1.949       .  S
O1598      C1599   1.276       .  A
O1598     Cr1604   2.059       .  S
C1599      O1600   1.257       .  A
C1599      C1621   1.478       .  S
O1600     Cr1605   1.973       .  S
O1601      C1602   1.260       .  A
O1601     Cr1605   1.997       .  S
Cr1603     O1606   1.787       .  S
Cr1604     O1606   1.763       .  S
Cr1605     O1606   1.755       .  S
O1607      C1615   1.274       .  A
O1607     Cr1625   2.032       .  S
O1608      C1609   1.256   1_565  A
O1608     Cr2681   1.936       .  S
C1609      O1610   1.279       .  A
C1609      C2366   1.453       .  S
O1610     Cr1978   2.052       .  S
O1611      C1964   1.253       .  A
O1611     Cr1978   1.957       .  S
C1612      O1963   1.253   1_554  A
C1612      O1613   1.263       .  A
C1612      C1719   1.451   1_554  S
O1613     Cr1627   2.006       .  S
O1614      C1615   1.257       .  A
O1614     Cr2331   1.959       .  S
C1615      C1634   1.451       .  S
O1616      C1624   1.268       .  A
O1616     Cr1625   1.998       .  S
O1617      C1618   1.264       .  A
O1617     Cr2329   2.055   1_545  S
C1618      O1619   1.250       .  A
C1618      C1860   1.482   1_554  S
O1619     Cr1626   1.949       .  S
O1620      C1621   1.276       .  A
O1620     Cr1626   2.059       .  S
C1621      O1622   1.257       .  A
O1622     Cr1627   1.973       .  S
O1623      C2328   1.260       .  A
O1623     Cr1627   1.997   1_565  S
C1624      O2327   1.260       .  A
C1624      C1659   1.453       .  S
Cr1625     O2664   1.936   1_554  S
Cr1625     O2321   2.055       .  S
Cr1625     O2332   1.787       .  S
Cr1626     O1962   2.051   1_554  S
Cr1626     O1963   1.957   1_554  S
Cr1626     O1628   1.763       .  S
Cr1627     O2318   1.959   1_545  S
Cr1627     O1628   1.755       .  S
O1628     Cr2329   1.787   1_545  S
O1629      C1637   1.256       .  A
O1629     Cr1999   1.936   1_554  S
O1630      C1631   1.274       .  A
C1631      O1984   1.257       .  A
C1631      C1700   1.451   1_556  S
O1632      C1983   1.257       .  A
O1633      C1986   1.263       .  A
O1633     Cr1648   2.006       .  S
C1634      O1985   1.263   1_554  A
C1634      O1635   1.253       .  A
O1635     Cr1649   1.958       .  S
O1636      C1637   1.279       .  A
O1636     Cr1649   2.051       .  S
C1637      C1690   1.453       .  S
O1638      C1646   1.264       .  A
O1638     Cr1647   2.055       .  S
O1639      C1640   1.268       .  A
O1639     Cr1647   1.998       .  S
C1640      O1641   1.260       .  A
O1641     Cr1648   1.997       .  S
O1642      C1643   1.257       .  A
O1642     Cr1648   1.973       .  S
C1643      O1644   1.276       .  A
C1643      C1665   1.478       .  S
O1644     Cr2001   2.059       .  S
O1645      C1998   1.250       .  A
O1645     Cr1649   1.949   1_556  S
C1646      O1997   1.250       .  A
C1646      C1932   1.482       .  S
Cr1647     O1981   1.936       .  S
Cr1647     O1650   1.787       .  S
Cr1648     O1650   1.755       .  S
Cr1649     O1996   2.059   1_554  S
Cr1649     O2002   1.763   1_554  S
O1650     Cr2001   1.763       .  S
O1651      C1659   1.256       .  A
O1651     Cr1669   1.936       .  S
O1652      C1653   1.274       .  A
O1652     Cr2373   2.032   1_545  S
C1653      O1654   1.257       .  A
O1654     Cr2374   1.959   1_545  S
O1655      C1656   1.263       .  A
O1655     Cr1670   2.006       .  S
C1656      O1657   1.253       .  A
C1656      C1681   1.451       .  S
O1657     Cr1671   1.957       .  S
O1658      C1659   1.279       .  A
O1658     Cr1671   2.052       .  S
O1660      C1668   1.264       .  A
O1660     Cr1669   2.055       .  S
O1661      C1662   1.268       .  A
O1661     Cr1669   1.998       .  S
C1662      O1663   1.260       .  A
C1662      C2313   1.453       .  S
O1663     Cr1670   1.997       .  S
O1664      C1665   1.257       .  A
O1664     Cr1670   1.973       .  S
C1665      O1666   1.276       .  A
O1666     Cr1671   2.059       .  S
O1667      C1668   1.250       .  A
O1667     Cr1671   1.949       .  S
Cr1669     O2356   2.032       .  S
Cr1669     O1672   1.787       .  S
Cr1670     O2358   1.959       .  S
Cr1670     O1672   1.755       .  S
Cr1671     O1672   1.763       .  S
O1673      C1681   1.274       .  A
O1673     Cr1691   2.032       .  S
O1674      C1675   1.256   1_455  A
C1675      O1676   1.279       .  A
O1676     Cr1692   2.051       .  S
O1677      C1678   1.253       .  A
O1677     Cr1692   1.957       .  S
C1678      O1679   1.263       .  A
C1678      C1741   1.451       .  S
O1679     Cr1693   2.006       .  S
O1680      C1681   1.257       .  A
O1682      C1690   1.268       .  A
O1682     Cr1691   1.998       .  S
O1683      C1684   1.264       .  A
C1684      O1685   1.250       .  A
O1685     Cr1692   1.949       .  S
O1686      C1687   1.276       .  A
O1686     Cr1692   2.059       .  S
C1687      O1688   1.257       .  A
C1687      C1709   1.478       .  S
O1688     Cr1693   1.973       .  S
O1689     Cr1693   1.997   1_455  S
Cr1692     O1694   1.763       .  S
Cr1693     O1694   1.755       .  S
O1695      C1703   1.274       .  A
O1695     Cr2417   2.032   1_545  S
O1696      C1697   1.256       .  A
O1696     Cr2065   1.936       .  S
C1697      O1698   1.279       .  A
C1697      C1750   1.453       .  S
O1698     Cr2066   2.052       .  S
O1699      C2052   1.253       .  A
O1699     Cr2066   1.957       .  S
C1700      O2051   1.253   1_554  A
C1700      O1701   1.263       .  A
O1701     Cr1715   2.006       .  S
O1702      C1703   1.257       .  A
O1702     Cr2419   1.959   1_545  S
C1703      C1722   1.451       .  S
O1704      C1712   1.268       .  A
O1704     Cr1713   1.998       .  S
O1705      C1706   1.264       .  A
O1705     Cr1713   2.055       .  S
C1706      O1707   1.250       .  A
C1706      C1772   1.482   1_554  S
O1707     Cr1714   1.949       .  S
O1708      C1709   1.276       .  A
O1708     Cr1714   2.059       .  S
C1709      O1710   1.257       .  A
O1710     Cr1715   1.973       .  S
O1711      C1712   1.260       .  A
O1711     Cr1715   1.997       .  S
C1712      C2451   1.453       .  S
Cr1713     O2399   2.032       .  S
Cr1713     O2048   1.936   1_554  S
Cr1713     O1716   1.787       .  S
Cr1714     O2050   2.052   1_554  S
Cr1714     O2051   1.957   1_554  S
Cr1714     O1716   1.763       .  S
Cr1715     O2406   1.959       .  S
Cr1715     O1716   1.755       .  S
O1717      C1725   1.256   1_455  A
O1718      C1719   1.274       .  A
O1718     Cr1735   2.032       .  S
C1719      O2072   1.257       .  A
O1720      C2071   1.257       .  A
O1721      C2074   1.263       .  A
O1721     Cr1736   2.006       .  S
C1722      O2073   1.263   1_554  A
C1722      O1723   1.253       .  A
O1723     Cr1737   1.958       .  S
O1724      C1725   1.279       .  A
O1724     Cr1737   2.051       .  S
O1726      C1734   1.264       .  A
O1727      C1728   1.268       .  A
O1727     Cr2087   1.998       .  S
O1729     Cr1736   1.997   1_455  S
O1730      C1731   1.257       .  A
O1730     Cr1736   1.973       .  S
C1731      O1732   1.276       .  A
C1731      C1753   1.478       .  S
O1732     Cr2089   2.059       .  S
O1733      C2086   1.250       .  A
O1733     Cr1737   1.949   1_556  S
C1734      O2085   1.250       .  A
C1734      C1844   1.482       .  S
Cr1735     O2079   1.998       .  S
Cr1736     O1738   1.755       .  S
Cr1737     O2084   2.059   1_554  S
Cr1737     O2090   1.763   1_554  S
O1738     Cr2089   1.763       .  S
O1739      C1747   1.256   1_565  A
O1739     Cr2461   1.936       .  S
O1740      C1741   1.274       .  A
O1740     Cr1757   2.032       .  S
C1741      O1742   1.257       .  A
O1742     Cr2462   1.959       .  S
O1743      C1744   1.263       .  A
O1743     Cr1758   2.006       .  S
C1744      O1745   1.253       .  A
O1745     Cr1759   1.957       .  S
O1746      C1747   1.279       .  A
O1746     Cr1759   2.051       .  S
C1747      C2416   1.453       .  S
O1748      C1756   1.264       .  A
O1748     Cr2461   2.055   1_545  S
O1749      C1750   1.268       .  A
O1749     Cr1757   1.998       .  S
C1750      O1751   1.260       .  A
O1751     Cr2462   1.997       .  S
O1752      C1753   1.257       .  A
O1752     Cr1758   1.973       .  S
C1753      O1754   1.276       .  A
O1754     Cr1759   2.059       .  S
O1755      C1756   1.250       .  A
O1755     Cr1759   1.949       .  S
Cr1757     O2443   1.936       .  S
Cr1757     O2452   2.055       .  S
Cr1757     O2464   1.787       .  S
Cr1758     O2446   1.959   1_545  S
Cr1758     O2455   1.997   1_545  S
Cr1758     O1760   1.755       .  S
Cr1759     O1760   1.763       .  S
O1760     Cr2461   1.787   1_545  S
O1761      C1769   1.274       .  A
O1762      C1763   1.256       .  A
C1763      O1764   1.279       .  A
C1763      C1904   1.453       .  S
O1764     Cr1780   2.051       .  S
O1765      C1766   1.253       .  A
O1765     Cr1780   1.958       .  S
C1766      C1829   1.451       .  S
O1767     Cr1781   2.006       .  S
O1768     Cr1781   1.959       .  S
C1769      C1920   1.451       .  S
O1770      C1778   1.268       .  A
O1770     Cr1779   1.998       .  S
O1771      C1772   1.264   1_554  A
O1771     Cr1779   2.055   1_554  S
O1773     Cr1780   1.949       .  S
O1774      C1775   1.276       .  A
C1775      O1776   1.257       .  A
C1775      C1797   1.478       .  S
O1776     Cr1781   1.973       .  S
O1777      C1778   1.260       .  A
O1777     Cr1781   1.997       .  S
C1778      C1901   1.453       .  S
Cr1779     O1782   1.787       .  S
Cr1781     O1782   1.755       .  S
O1783      C1791   1.274       .  A
O1783     Cr1801   2.032       .  S
O1784      C1785   1.256       .  A
O1784     Cr1801   1.936       .  S
C1785      O1786   1.279       .  A
C1785      C1838   1.453       .  S
O1786     Cr1802   2.051       .  S
O1787      C1788   1.253       .  A
O1787     Cr1802   1.957       .  S
C1788      O1789   1.263       .  A
C1788      C1895   1.451       .  S
O1789     Cr1803   2.006       .  S
O1790      C1791   1.257       .  A
O1790     Cr1803   1.959       .  S
C1791      C1810   1.451       .  S
O1792      C1800   1.268       .  A
O1792     Cr1801   1.998       .  S
O1793      C1794   1.264       .  A
O1793     Cr1801   2.055       .  S
C1794      O1795   1.250       .  A
C1794      C2036   1.482       .  S
O1795     Cr1802   1.949       .  S
O1796      C1797   1.276       .  A
O1796     Cr1802   2.059       .  S
C1797      O1798   1.257       .  A
O1798     Cr1803   1.973       .  S
O1799      C1800   1.260       .  A
O1799     Cr1803   1.997       .  S
C1800      C1835   1.453       .  S
Cr1801     O1804   1.787       .  S
Cr1802     O1804   1.763       .  S
Cr1803     O1804   1.755       .  S
O1805      C1813   1.256       .  A
O1805     Cr1823   1.936       .  S
O1806      C1807   1.274       .  A
O1806     Cr1823   2.032       .  S
C1807      O1808   1.257       .  A
C1807      C1876   1.451       .  S
O1808     Cr1824   1.959       .  S
O1809      C1810   1.263       .  A
O1809     Cr1824   2.006       .  S
C1810      O1811   1.253       .  A
O1811     Cr1825   1.957       .  S
O1812      C1813   1.279       .  A
O1812     Cr1825   2.051       .  S
C1813      C1866   1.453       .  S
O1814      C1822   1.264       .  A
O1814     Cr1823   2.055       .  S
O1815      C1816   1.268       .  A
O1815     Cr1823   1.998       .  S
C1816      O1817   1.260       .  A
C1816      C1851   1.453       .  S
O1817     Cr1824   1.997       .  S
O1818      C1819   1.257       .  A
O1818     Cr1824   1.973       .  S
C1819      O1820   1.276       .  A
C1819      C1841   1.478       .  S
O1820     Cr1825   2.059       .  S
O1821      C1822   1.250       .  A
O1821     Cr1825   1.949       .  S
C1822      C2108   1.482       .  S
Cr1823     O1826   1.787       .  S
Cr1824     O1826   1.755       .  S
Cr1825     O1826   1.763       .  S
O1827      C1835   1.256       .  A
O1828      C1829   1.274       .  A
O1828     Cr1845   2.032       .  S
C1829      O1830   1.257       .  A
O1830     Cr1846   1.959       .  S
O1831      C1832   1.263       .  A
O1831     Cr1846   2.006       .  S
C1832      C1857   1.451       .  S
O1834      C1835   1.279       .  A
O1836      C1844   1.264       .  A
O1836     Cr1845   2.055       .  S
O1837      C1838   1.268       .  A
O1837     Cr1845   1.998       .  S
C1838      O1839   1.260       .  A
O1839     Cr1846   1.997       .  S
O1840      C1841   1.257       .  A
O1840     Cr1846   1.973       .  S
C1841      O1842   1.276       .  A
O1842     Cr1847   2.059       .  S
O1843      C1844   1.250       .  A
O1843     Cr1847   1.949       .  S
Cr1845     O1848   1.787       .  S
Cr1846     O1848   1.755       .  S
Cr1847     O1848   1.763       .  S
O1849      C1857   1.274       .  A
O1850      C1851   1.256       .  A
C1851      O1852   1.279       .  A
O1852     Cr1868   2.051       .  S
O1853      C1854   1.253       .  A
O1853     Cr1868   1.958       .  S
C1854      C1917   1.451       .  S
O1855     Cr1869   2.006       .  S
O1856     Cr1869   1.959       .  S
O1858      C1866   1.268       .  A
O1858     Cr1867   1.998       .  S
O1859      C1860   1.264   1_554  A
O1859     Cr1867   2.055   1_554  S
O1861     Cr1868   1.949       .  S
O1862      C1863   1.276       .  A
C1863      O1864   1.257       .  A
C1863      C1885   1.478       .  S
O1864     Cr1869   1.973       .  S
O1865      C1866   1.260       .  A
O1865     Cr1869   1.997       .  S
Cr1867     O1870   1.787       .  S
Cr1869     O1870   1.755       .  S
O1871      C1879   1.274       .  A
O1871     Cr1889   2.032       .  S
O1872      C1873   1.256       .  A
O1872     Cr1889   1.936       .  S
C1873      O1874   1.279       .  A
C1873      C1926   1.453       .  S
O1874     Cr1890   2.051       .  S
O1875      C1876   1.253       .  A
O1875     Cr1890   1.957       .  S
C1876      O1877   1.263       .  A
O1877     Cr1891   2.006       .  S
O1878      C1879   1.257       .  A
O1878     Cr1891   1.959       .  S
C1879      C1898   1.451       .  S
O1880      C1888   1.268       .  A
O1880     Cr1889   1.998       .  S
O1881      C1882   1.264       .  A
O1881     Cr1889   2.055       .  S
C1882      O1883   1.250       .  A
C1882      C1948   1.482       .  S
O1883     Cr1890   1.949       .  S
O1884      C1885   1.276       .  A
O1884     Cr1890   2.059       .  S
C1885      O1886   1.257       .  A
O1886     Cr1891   1.973       .  S
O1887      C1888   1.260       .  A
O1887     Cr1891   1.997       .  S
C1888      C1923   1.453       .  S
Cr1889     O1892   1.787       .  S
Cr1890     O1892   1.763       .  S
Cr1891     O1892   1.755       .  S
O1893      C1901   1.256       .  A
O1893     Cr1911   1.936       .  S
O1894      C1895   1.274       .  A
O1894     Cr1911   2.032       .  S
C1895      O1896   1.257       .  A
O1896     Cr1912   1.959       .  S
O1897      C1898   1.263       .  A
O1897     Cr1912   2.006       .  S
C1898      O1899   1.253       .  A
O1899     Cr1913   1.958       .  S
O1900      C1901   1.279       .  A
O1900     Cr1913   2.051       .  S
O1902      C1910   1.264       .  A
O1902     Cr1911   2.055       .  S
O1903      C1904   1.268       .  A
O1903     Cr1911   1.998       .  S
C1904      O1905   1.260       .  A
O1905     Cr1912   1.997       .  S
O1906      C1907   1.257       .  A
O1906     Cr1912   1.973       .  S
C1907      O1908   1.276       .  A
C1907      C1929   1.478       .  S
O1908     Cr1913   2.059       .  S
O1909      C1910   1.250       .  A
O1909     Cr1913   1.949       .  S
C1910      C2020   1.482       .  S
Cr1911     O1914   1.787       .  S
Cr1912     O1914   1.755       .  S
Cr1913     O1914   1.763       .  S
O1915      C1923   1.256       .  A
O1916      C1917   1.274       .  A
O1916     Cr1933   2.032       .  S
C1917      O1918   1.257       .  A
O1918     Cr1934   1.959       .  S
O1919      C1920   1.263       .  A
O1919     Cr1934   2.006       .  S
O1922      C1923   1.279       .  A
O1924      C1932   1.264       .  A
O1924     Cr1933   2.055       .  S
O1925      C1926   1.268       .  A
O1925     Cr1933   1.998       .  S
C1926      O1927   1.260       .  A
O1927     Cr1934   1.997       .  S
O1928      C1929   1.257       .  A
O1928     Cr1934   1.973       .  S
C1929      O1930   1.276       .  A
O1930     Cr1935   2.059       .  S
O1931      C1932   1.250       .  A
O1931     Cr1935   1.949       .  S
Cr1933     O1936   1.787       .  S
Cr1934     O1936   1.755       .  S
Cr1935     O1936   1.763       .  S
O1937      C1945   1.274       .  A
O1938      C1939   1.256       .  A
O1938     Cr1955   1.936       .  S
C1939      O1940   1.279       .  A
C1939      C2080   1.453       .  S
O1940     Cr1956   2.051       .  S
O1941      C1942   1.253       .  A
O1941     Cr1956   1.957       .  S
C1942      O1943   1.263       .  A
C1942      C2005   1.451       .  S
O1943     Cr1957   2.006       .  S
O1944      C1945   1.257       .  A
C1945      C2096   1.451       .  S
O1946      C1954   1.268       .  A
O1946     Cr1955   1.998       .  S
O1947      C1948   1.264       .  A
O1947     Cr1955   2.055       .  S
C1948      O1949   1.250       .  A
O1949     Cr1956   1.949       .  S
O1950      C1951   1.276       .  A
O1950     Cr1956   2.059       .  S
C1951      O1952   1.257       .  A
C1951      C1973   1.478       .  S
O1952     Cr1957   1.973       .  S
O1953      C1954   1.260       .  A
O1953     Cr1957   1.997       .  S
Cr1955     O1958   1.787       .  S
Cr1956     O1958   1.763       .  S
Cr1957     O1958   1.755       .  S
O1959      C1967   1.274       .  A
O1959     Cr1977   2.032       .  S
O1960      C1961   1.256   1_565  A
O1960     Cr2329   1.936   1_556  S
C1961      O1962   1.279       .  A
C1961      C2718   1.453       .  S
C1964      O1965   1.263       .  A
C1964      C2071   1.451       .  S
O1965     Cr1979   2.006       .  S
O1966      C1967   1.257       .  A
O1966     Cr2683   1.959       .  S
C1967      C1986   1.451       .  S
O1968      C1976   1.268       .  A
O1968     Cr1977   1.998       .  S
O1969      C1970   1.264       .  A
O1969     Cr2681   2.055   1_545  S
C1970      O1971   1.250       .  A
O1971     Cr1978   1.949       .  S
O1972      C1973   1.276       .  A
O1972     Cr1978   2.059       .  S
C1973      O1974   1.257       .  A
O1974     Cr1979   1.973       .  S
O1975      C2680   1.260       .  A
O1975     Cr1979   1.997   1_565  S
C1976      O2679   1.260       .  A
C1976      C2011   1.453       .  S
Cr1977     O2312   1.936       .  S
Cr1977     O2673   2.055       .  S
Cr1977     O2684   1.787       .  S
Cr1978     O1980   1.763       .  S
Cr1979     O2670   1.959   1_545  S
Cr1979     O1980   1.755       .  S
O1980     Cr2681   1.787   1_545  S
O1981      C1989   1.256       .  A
O1982      C1983   1.274       .  A
C1983      C2052   1.451       .  S
O1985     Cr2000   2.006       .  S
C1986      O1987   1.253       .  A
O1987     Cr2001   1.958       .  S
O1988      C1989   1.279       .  A
O1988     Cr2001   2.051       .  S
C1989      C2042   1.453       .  S
O1990      C1998   1.264   1_554  A
O1990     Cr1999   2.055   1_554  S
O1991      C1992   1.268       .  A
O1991     Cr1999   1.998       .  S
C1992      O1993   1.260       .  A
O1993     Cr2000   1.997       .  S
O1994      C1995   1.257       .  A
O1994     Cr2000   1.973       .  S
C1995      O1996   1.276       .  A
C1995      C2017   1.478       .  S
O1997     Cr2001   1.949       .  S
Cr1999     O2002   1.787       .  S
Cr2000     O2002   1.755       .  S
O2003      C2011   1.256       .  A
O2003     Cr2021   1.936       .  S
O2004      C2005   1.274       .  A
O2004     Cr2725   2.032   1_545  S
C2005      O2006   1.257       .  A
O2006     Cr2726   1.959   1_545  S
O2007      C2008   1.263       .  A
O2007     Cr2022   2.006       .  S
C2008      O2009   1.253       .  A
C2008      C2033   1.451       .  S
O2009     Cr2023   1.957       .  S
O2010      C2011   1.279       .  A
O2010     Cr2023   2.052       .  S
O2012      C2020   1.264       .  A
O2012     Cr2021   2.055       .  S
O2013      C2014   1.268       .  A
O2013     Cr2021   1.998       .  S
C2014      O2015   1.260       .  A
C2014      C2665   1.453       .  S
O2015     Cr2022   1.997       .  S
O2016      C2017   1.257       .  A
O2016     Cr2022   1.973       .  S
C2017      O2018   1.276       .  A
O2018     Cr2023   2.059       .  S
O2019      C2020   1.250       .  A
O2019     Cr2023   1.949       .  S
Cr2021     O2708   2.032       .  S
Cr2021     O2024   1.787       .  S
Cr2022     O2710   1.959       .  S
Cr2022     O2024   1.755       .  S
Cr2023     O2024   1.763       .  S
O2025      C2033   1.274       .  A
O2025     Cr2043   2.032       .  S
O2026      C2027   1.256   1_455  A
C2027      O2028   1.279       .  A
O2028     Cr2044   2.051       .  S
O2029      C2030   1.253       .  A
O2029     Cr2044   1.957       .  S
C2030      O2031   1.263       .  A
C2030      C2093   1.451       .  S
O2031     Cr2045   2.006       .  S
O2032      C2033   1.257       .  A
O2034      C2042   1.268       .  A
O2034     Cr2043   1.998       .  S
O2035      C2036   1.264       .  A
C2036      O2037   1.250       .  A
O2037     Cr2044   1.949       .  S
O2038      C2039   1.276       .  A
O2038     Cr2044   2.059       .  S
C2039      O2040   1.257       .  A
C2039      C2061   1.478       .  S
O2040     Cr2045   1.973       .  S
O2041     Cr2045   1.997   1_455  S
Cr2044     O2046   1.763       .  S
Cr2045     O2046   1.755       .  S
O2047      C2055   1.274       .  A
O2047     Cr2769   2.032   1_545  S
O2048      C2049   1.256       .  A
C2049      O2050   1.279       .  A
C2049      C2102   1.453       .  S
C2052      O2053   1.263       .  A
O2053     Cr2067   2.006       .  S
O2054      C2055   1.257       .  A
O2054     Cr2771   1.959   1_545  S
C2055      C2074   1.451       .  S
O2056      C2064   1.268       .  A
O2056     Cr2065   1.998       .  S
O2057      C2058   1.264       .  A
O2057     Cr2065   2.055       .  S
C2058      O2059   1.250       .  A
O2059     Cr2066   1.949       .  S
O2060      C2061   1.276       .  A
O2060     Cr2066   2.059       .  S
C2061      O2062   1.257       .  A
O2062     Cr2067   1.973       .  S
O2063      C2064   1.260       .  A
O2063     Cr2067   1.997       .  S
C2064      C2803   1.453       .  S
Cr2065     O2751   2.032       .  S
Cr2065     O2068   1.787       .  S
Cr2066     O2068   1.763       .  S
Cr2067     O2758   1.959       .  S
Cr2067     O2068   1.755       .  S
O2069      C2077   1.256   1_455  A
O2070      C2071   1.274       .  A
O2070     Cr2087   2.032       .  S
O2073     Cr2088   2.006       .  S
C2074      O2075   1.253       .  A
O2075     Cr2089   1.958       .  S
O2076      C2077   1.279       .  A
O2076     Cr2089   2.051       .  S
O2078      C2086   1.264   1_554  A
O2079      C2080   1.268       .  A
O2081     Cr2088   1.997   1_455  S
O2082      C2083   1.257       .  A
O2082     Cr2088   1.973       .  S
C2083      O2084   1.276       .  A
C2083      C2105   1.478       .  S
O2085     Cr2089   1.949       .  S
Cr2088     O2090   1.755       .  S
O2091      C2099   1.256   1_565  A
O2091     Cr2813   1.936       .  S
O2092      C2093   1.274       .  A
O2092     Cr2109   2.032       .  S
C2093      O2094   1.257       .  A
O2094     Cr2814   1.959       .  S
O2095      C2096   1.263       .  A
O2095     Cr2110   2.006       .  S
C2096      O2097   1.253       .  A
O2097     Cr2111   1.957       .  S
O2098      C2099   1.279       .  A
O2098     Cr2111   2.052       .  S
C2099      C2768   1.453       .  S
O2100      C2108   1.264       .  A
O2100     Cr2813   2.055   1_545  S
O2101      C2102   1.268       .  A
O2101     Cr2109   1.998       .  S
C2102      O2103   1.260       .  A
O2103     Cr2814   1.997       .  S
O2104      C2105   1.257       .  A
O2104     Cr2110   1.973       .  S
C2105      O2106   1.276       .  A
O2106     Cr2111   2.059       .  S
O2107      C2108   1.250       .  A
O2107     Cr2111   1.949       .  S
Cr2109     O2795   1.936       .  S
Cr2109     O2804   2.055       .  S
Cr2109     O2816   1.787       .  S
Cr2110     O2798   1.959   1_545  S
Cr2110     O2807   1.997   1_545  S
Cr2110     O2112   1.755       .  S
Cr2111     O2112   1.763       .  S
O2112     Cr2813   1.787   1_545  S
O2113      C2121   1.274       .  A
O2113     Cr2483   2.032       .  S
O2114      C2115   1.256       .  A
O2114     Cr2483   1.936   1_554  S
C2115      O2116   1.279       .  A
C2115      C2256   1.453       .  S
O2116     Cr2132   2.051       .  S
O2117      C2118   1.253       .  A
O2117     Cr2132   1.958       .  S
C2118      O2471   1.263   1_554  A
C2118      C2181   1.451       .  S
O2119      C2470   1.263       .  A
O2119     Cr2133   2.006       .  S
O2120      C2473   1.257       .  A
O2120     Cr2133   1.959       .  S
C2121      O2472   1.257       .  A
C2121      C2272   1.451   1_556  S
O2122      C2130   1.268       .  A
O2122     Cr2131   1.998       .  S
O2123      C2124   1.264       .  A
O2123     Cr2131   2.055       .  S
C2124      O2477   1.250       .  A
C2124      C2762   1.482       .  S
O2125      C2476   1.250       .  A
O2125     Cr2132   1.949   1_556  S
O2126      C2127   1.276       .  A
O2126     Cr2484   2.059       .  S
C2127      O2128   1.257       .  A
C2127      C2149   1.478       .  S
O2128     Cr2133   1.973       .  S
O2129      C2130   1.260       .  A
O2129     Cr2133   1.997       .  S
C2130      C2253   1.453       .  S
Cr2131     O2465   2.032       .  S
Cr2131     O2466   1.936       .  S
Cr2131     O2134   1.787       .  S
Cr2132     O2478   2.059   1_554  S
Cr2132     O2486   1.763   1_554  S
Cr2133     O2134   1.755       .  S
O2134     Cr2484   1.763       .  S
O2135      C2143   1.274       .  A
O2135     Cr2153   2.032       .  S
O2136      C2137   1.256       .  A
O2136     Cr2153   1.936       .  S
C2137      O2138   1.279       .  A
C2137      C2190   1.453       .  S
O2138     Cr2154   2.051       .  S
O2139      C2140   1.253       .  A
O2139     Cr2154   1.957       .  S
C2140      O2141   1.263       .  A
C2140      C2247   1.451       .  S
O2141     Cr2155   2.006       .  S
O2142      C2143   1.257       .  A
O2142     Cr2155   1.959       .  S
C2143      C2162   1.451       .  S
O2144      C2152   1.268       .  A
O2144     Cr2153   1.998       .  S
O2145      C2146   1.264       .  A
O2145     Cr2153   2.055       .  S
C2146      O2147   1.250       .  A
C2146      C2388   1.482       .  S
O2147     Cr2154   1.949       .  S
O2148      C2149   1.276       .  A
O2148     Cr2154   2.059       .  S
C2149      O2150   1.257       .  A
O2150     Cr2155   1.973       .  S
O2151      C2152   1.260       .  A
O2151     Cr2155   1.997       .  S
C2152      C2187   1.453       .  S
Cr2153     O2156   1.787       .  S
Cr2154     O2156   1.763       .  S
Cr2155     O2156   1.755       .  S
O2157      C2165   1.256       .  A
O2157     Cr2175   1.936       .  S
O2158      C2159   1.274       .  A
O2158     Cr2175   2.032       .  S
C2159      O2160   1.257       .  A
C2159      C2228   1.451       .  S
O2160     Cr2176   1.959       .  S
O2161      C2162   1.263       .  A
O2161     Cr2176   2.006       .  S
C2162      O2163   1.253       .  A
O2163     Cr2177   1.957       .  S
O2164      C2165   1.279       .  A
O2164     Cr2177   2.051       .  S
C2165      C2218   1.453       .  S
O2166      C2174   1.264       .  A
O2166     Cr2175   2.055       .  S
O2167      C2168   1.268       .  A
O2167     Cr2175   1.998       .  S
C2168      O2169   1.260       .  A
C2168      C2203   1.453       .  S
O2169     Cr2176   1.997       .  S
O2170      C2171   1.257       .  A
O2170     Cr2176   1.973       .  S
C2171      O2172   1.276       .  A
C2171      C2193   1.478       .  S
O2172     Cr2177   2.059       .  S
O2173      C2174   1.250       .  A
O2173     Cr2177   1.949       .  S
C2174      C2460   1.482       .  S
Cr2175     O2178   1.787       .  S
Cr2176     O2178   1.755       .  S
Cr2177     O2178   1.763       .  S
O2179      C2187   1.256       .  A
O2179     Cr2549   1.936       .  S
O2180      C2181   1.274       .  A
O2180     Cr2197   2.032       .  S
C2181      O2182   1.257       .  A
O2182     Cr2198   1.959       .  S
O2183      C2184   1.263       .  A
O2183     Cr2198   2.006       .  S
C2184      O2537   1.253   1_554  A
C2184      C2209   1.451   1_554  S
O2185      C2536   1.253       .  A
O2185     Cr2551   1.957       .  S
O2186      C2187   1.279       .  A
O2186     Cr2551   2.052       .  S
O2188      C2196   1.264       .  A
O2188     Cr2197   2.055       .  S
O2189      C2190   1.268       .  A
O2189     Cr2197   1.998       .  S
C2190      O2191   1.260       .  A
O2191     Cr2198   1.997       .  S
O2192      C2193   1.257       .  A
O2192     Cr2198   1.973       .  S
C2193      O2194   1.276       .  A
O2194     Cr2199   2.059       .  S
O2195      C2196   1.250       .  A
O2195     Cr2199   1.949       .  S
C2196      C2790   1.482   1_554  S
Cr2197     O2531   1.936   1_554  S
Cr2197     O2200   1.787       .  S
Cr2198     O2200   1.755       .  S
Cr2199     O2537   1.957   1_554  S
Cr2199     O2538   2.052   1_554  S
Cr2199     O2200   1.763       .  S
O2201      C2209   1.274       .  A
O2201     Cr2571   2.032       .  S
O2202      C2203   1.256       .  A
O2202     Cr2571   1.936   1_554  S
C2203      O2204   1.279       .  A
O2204     Cr2220   2.051       .  S
O2205      C2206   1.253       .  A
O2205     Cr2220   1.958       .  S
C2206      O2559   1.263   1_554  A
C2206      C2269   1.451       .  S
O2207      C2558   1.263       .  A
O2207     Cr2221   2.006       .  S
O2208      C2561   1.257       .  A
O2208     Cr2221   1.959       .  S
C2209      O2560   1.257       .  A
O2210      C2218   1.268       .  A
O2210     Cr2219   1.998       .  S
O2211      C2212   1.264       .  A
O2211     Cr2219   2.055       .  S
C2212      O2565   1.250       .  A
C2212      C2674   1.482       .  S
O2213      C2564   1.250       .  A
O2213     Cr2220   1.949   1_556  S
O2214      C2215   1.276       .  A
O2214     Cr2572   2.059       .  S
C2215      O2216   1.257       .  A
C2215      C2237   1.478       .  S
O2216     Cr2221   1.973       .  S
O2217      C2218   1.260       .  A
O2217     Cr2221   1.997       .  S
Cr2219     O2553   2.032       .  S
Cr2219     O2554   1.936       .  S
Cr2219     O2222   1.787       .  S
Cr2220     O2566   2.059   1_554  S
Cr2220     O2574   1.763   1_554  S
Cr2221     O2222   1.755       .  S
O2222     Cr2572   1.763       .  S
O2223      C2231   1.274       .  A
O2223     Cr2241   2.032       .  S
O2224      C2225   1.256       .  A
O2224     Cr2241   1.936       .  S
C2225      O2226   1.279       .  A
C2225      C2278   1.453       .  S
O2226     Cr2242   2.051       .  S
O2227      C2228   1.253       .  A
O2227     Cr2242   1.957       .  S
C2228      O2229   1.263       .  A
O2229     Cr2243   2.006       .  S
O2230      C2231   1.257       .  A
O2230     Cr2243   1.959       .  S
C2231      C2250   1.451       .  S
O2232      C2240   1.268       .  A
O2232     Cr2241   1.998       .  S
O2233      C2234   1.264       .  A
O2233     Cr2241   2.055       .  S
C2234      O2235   1.250       .  A
C2234      C2300   1.482       .  S
O2235     Cr2242   1.949       .  S
O2236      C2237   1.276       .  A
O2236     Cr2242   2.059       .  S
C2237      O2238   1.257       .  A
O2238     Cr2243   1.973       .  S
O2239      C2240   1.260       .  A
O2239     Cr2243   1.997       .  S
C2240      C2275   1.453       .  S
Cr2241     O2244   1.787       .  S
Cr2242     O2244   1.763       .  S
Cr2243     O2244   1.755       .  S
O2245      C2253   1.256       .  A
O2245     Cr2263   1.936       .  S
O2246      C2247   1.274       .  A
O2246     Cr2263   2.032       .  S
C2247      O2248   1.257       .  A
O2248     Cr2264   1.959       .  S
O2249      C2250   1.263       .  A
O2249     Cr2264   2.006       .  S
C2250      O2251   1.253       .  A
O2251     Cr2265   1.958       .  S
O2252      C2253   1.279       .  A
O2252     Cr2265   2.051       .  S
O2254      C2262   1.264       .  A
O2254     Cr2263   2.055       .  S
O2255      C2256   1.268       .  A
O2255     Cr2263   1.998       .  S
C2256      O2257   1.260       .  A
O2257     Cr2264   1.997       .  S
O2258      C2259   1.257       .  A
O2258     Cr2264   1.973       .  S
C2259      O2260   1.276       .  A
C2259      C2281   1.478       .  S
O2260     Cr2265   2.059       .  S
O2261      C2262   1.250       .  A
O2261     Cr2265   1.949       .  S
C2262      C2372   1.482       .  S
Cr2263     O2266   1.787       .  S
Cr2264     O2266   1.755       .  S
Cr2265     O2266   1.763       .  S
O2267      C2275   1.256       .  A
O2267     Cr2637   1.936       .  S
O2268      C2269   1.274       .  A
O2268     Cr2285   2.032       .  S
C2269      O2270   1.257       .  A
O2270     Cr2286   1.959       .  S
O2271      C2272   1.263       .  A
O2271     Cr2286   2.006       .  S
C2272      O2625   1.253   1_554  A
O2273      C2624   1.253       .  A
O2273     Cr2639   1.957       .  S
O2274      C2275   1.279       .  A
O2274     Cr2639   2.051       .  S
O2276      C2284   1.264       .  A
O2276     Cr2285   2.055       .  S
O2277      C2278   1.268       .  A
O2277     Cr2285   1.998       .  S
C2278      O2279   1.260       .  A
O2279     Cr2286   1.997       .  S
O2280      C2281   1.257       .  A
O2280     Cr2286   1.973       .  S
C2281      O2282   1.276       .  A
O2282     Cr2287   2.059       .  S
O2283      C2284   1.250       .  A
O2283     Cr2287   1.949       .  S
C2284      C2702   1.482   1_554  S
Cr2285     O2619   1.936   1_554  S
Cr2285     O2288   1.787       .  S
Cr2286     O2288   1.755       .  S
Cr2287     O2625   1.957   1_554  S
Cr2287     O2626   2.051   1_554  S
Cr2287     O2288   1.763       .  S
O2289      C2297   1.274       .  A
O2290      C2291   1.256       .  A
O2290     Cr2307   1.936       .  S
C2291      O2292   1.279       .  A
C2291      C2432   1.453       .  S
O2292     Cr2308   2.051       .  S
O2293      C2294   1.253       .  A
O2293     Cr2308   1.957       .  S
C2294      O2295   1.263       .  A
C2294      C2357   1.451       .  S
O2295     Cr2309   2.006       .  S
O2296      C2297   1.257       .  A
C2297      C2448   1.451       .  S
O2298      C2306   1.268       .  A
O2298     Cr2307   1.998       .  S
O2299      C2300   1.264       .  A
O2299     Cr2307   2.055       .  S
C2300      O2301   1.250       .  A
O2301     Cr2308   1.949       .  S
O2302      C2303   1.276       .  A
O2302     Cr2308   2.059       .  S
C2303      O2304   1.257       .  A
C2303      C2325   1.478       .  S
O2304     Cr2309   1.973       .  S
O2305      C2306   1.260       .  A
O2305     Cr2309   1.997       .  S
Cr2307     O2310   1.787       .  S
Cr2308     O2310   1.763       .  S
Cr2309     O2310   1.755       .  S
O2311      C2319   1.274       .  A
O2311     Cr2329   2.032       .  S
O2312      C2313   1.256       .  A
C2313      O2314   1.279       .  A
O2314     Cr2682   2.051       .  S
O2315      C2668   1.253       .  A
O2315     Cr2682   1.957       .  S
C2316      O2667   1.253   1_554  A
C2316      O2317   1.263       .  A
C2316      C2423   1.451   1_554  S
O2317     Cr2331   2.006       .  S
O2318      C2319   1.257       .  A
C2319      C2338   1.451       .  S
O2320      C2328   1.268       .  A
O2320     Cr2329   1.998       .  S
O2321      C2322   1.264       .  A
C2322      O2323   1.250       .  A
C2322      C2564   1.482   1_554  S
O2323     Cr2330   1.949       .  S
O2324      C2325   1.276       .  A
O2324     Cr2330   2.059       .  S
C2325      O2326   1.257       .  A
O2326     Cr2331   1.973       .  S
O2327     Cr2331   1.997       .  S
C2328      C2363   1.453       .  S
Cr2330     O2666   2.051   1_554  S
Cr2330     O2667   1.957   1_554  S
Cr2330     O2332   1.763       .  S
Cr2331     O2332   1.755       .  S
O2333      C2341   1.256       .  A
O2333     Cr2703   1.936   1_554  S
O2334      C2335   1.274       .  A
C2335      O2688   1.257       .  A
C2335      C2404   1.451   1_556  S
O2336      C2687   1.257       .  A
O2337      C2690   1.263       .  A
O2337     Cr2352   2.006       .  S
C2338      O2689   1.263   1_554  A
C2338      O2339   1.253       .  A
O2339     Cr2353   1.958       .  S
O2340      C2341   1.279       .  A
O2340     Cr2353   2.051       .  S
C2341      C2394   1.453       .  S
O2342      C2350   1.264       .  A
O2342     Cr2351   2.055       .  S
O2343      C2344   1.268       .  A
O2343     Cr2351   1.998       .  S
C2344      O2345   1.260       .  A
O2345     Cr2352   1.997       .  S
O2346      C2347   1.257       .  A
O2346     Cr2352   1.973       .  S
C2347      O2348   1.276       .  A
C2347      C2369   1.478       .  S
O2348     Cr2705   2.059       .  S
O2349      C2702   1.250       .  A
O2349     Cr2353   1.949   1_556  S
C2350      O2701   1.250       .  A
C2350      C2636   1.482       .  S
Cr2351     O2685   1.936       .  S
Cr2351     O2354   1.787       .  S
Cr2352     O2354   1.755       .  S
Cr2353     O2700   2.059   1_554  S
Cr2353     O2706   1.763   1_554  S
O2354     Cr2705   1.763       .  S
O2355      C2363   1.256       .  A
O2355     Cr2373   1.936       .  S
O2356      C2357   1.274       .  A
C2357      O2358   1.257       .  A
O2359      C2360   1.263       .  A
O2359     Cr2374   2.006       .  S
C2360      O2361   1.253       .  A
C2360      C2385   1.451       .  S
O2361     Cr2375   1.957       .  S
O2362      C2363   1.279       .  A
O2362     Cr2375   2.052       .  S
O2364      C2372   1.264       .  A
O2364     Cr2373   2.055       .  S
O2365      C2366   1.268   1_565  A
O2365     Cr2373   1.998       .  S
C2366      O2367   1.260       .  A
O2367     Cr2374   1.997   1_545  S
O2368      C2369   1.257       .  A
O2368     Cr2374   1.973       .  S
C2369      O2370   1.276       .  A
O2370     Cr2375   2.059       .  S
O2371      C2372   1.250       .  A
O2371     Cr2375   1.949       .  S
Cr2373     O2376   1.787       .  S
Cr2374     O2376   1.755       .  S
Cr2375     O2376   1.763       .  S
O2377      C2385   1.274       .  A
O2377     Cr2395   2.032       .  S
O2378      C2379   1.256   1_455  A
C2379      O2380   1.279       .  A
O2380     Cr2396   2.051       .  S
O2381      C2382   1.253       .  A
O2381     Cr2396   1.957       .  S
C2382      O2383   1.263       .  A
C2382      C2445   1.451       .  S
O2383     Cr2397   2.006       .  S
O2384      C2385   1.257       .  A
O2386      C2394   1.268       .  A
O2386     Cr2395   1.998       .  S
O2387      C2388   1.264       .  A
C2388      O2389   1.250       .  A
O2389     Cr2396   1.949       .  S
O2390      C2391   1.276       .  A
O2390     Cr2396   2.059       .  S
C2391      O2392   1.257       .  A
C2391      C2413   1.478       .  S
O2392     Cr2397   1.973       .  S
O2393     Cr2397   1.997   1_455  S
Cr2396     O2398   1.763       .  S
Cr2397     O2398   1.755       .  S
O2399      C2407   1.274       .  A
O2400      C2401   1.256       .  A
O2400     Cr2769   1.936       .  S
C2401      O2402   1.279       .  A
C2401      C2454   1.453       .  S
O2402     Cr2770   2.052       .  S
O2403      C2756   1.253       .  A
O2403     Cr2770   1.957       .  S
C2404      O2755   1.253   1_554  A
C2404      O2405   1.263       .  A
O2405     Cr2419   2.006       .  S
O2406      C2407   1.257       .  A
C2407      C2426   1.451       .  S
O2408      C2416   1.268   1_565  A
O2408     Cr2417   1.998       .  S
O2409      C2410   1.264       .  A
O2409     Cr2417   2.055       .  S
C2410      O2411   1.250       .  A
C2410      C2476   1.482   1_554  S
O2411     Cr2418   1.949       .  S
O2412      C2413   1.276       .  A
O2412     Cr2418   2.059       .  S
C2413      O2414   1.257       .  A
O2414     Cr2419   1.973       .  S
O2415      C2416   1.260       .  A
O2415     Cr2419   1.997   1_545  S
Cr2417     O2752   1.936   1_554  S
Cr2417     O2420   1.787       .  S
Cr2418     O2754   2.052   1_554  S
Cr2418     O2755   1.957   1_554  S
Cr2418     O2420   1.763       .  S
Cr2419     O2420   1.755       .  S
O2421      C2429   1.256   1_455  A
O2422      C2423   1.274       .  A
O2422     Cr2439   2.032       .  S
C2423      O2776   1.257       .  A
O2424      C2775   1.257       .  A
O2425      C2778   1.263       .  A
O2425     Cr2440   2.006       .  S
C2426      O2777   1.263   1_554  A
C2426      O2427   1.253       .  A
O2427     Cr2441   1.958       .  S
O2428      C2429   1.279       .  A
O2428     Cr2441   2.051       .  S
O2430      C2438   1.264       .  A
O2431      C2432   1.268       .  A
O2431     Cr2791   1.998       .  S
O2433     Cr2440   1.997   1_455  S
O2434      C2435   1.257       .  A
O2434     Cr2440   1.973       .  S
C2435      O2436   1.276       .  A
C2435      C2457   1.478       .  S
O2436     Cr2793   2.059       .  S
O2437      C2790   1.250       .  A
O2437     Cr2441   1.949   1_556  S
C2438      O2789   1.250       .  A
C2438      C2548   1.482       .  S
Cr2439     O2783   1.998       .  S
Cr2440     O2442   1.755       .  S
Cr2441     O2788   2.059   1_554  S
Cr2441     O2794   1.763   1_554  S
O2442     Cr2793   1.763       .  S
O2443      C2451   1.256       .  A
O2444      C2445   1.274       .  A
O2444     Cr2461   2.032       .  S
C2445      O2446   1.257       .  A
O2447      C2448   1.263       .  A
O2447     Cr2462   2.006       .  S
C2448      O2449   1.253       .  A
O2449     Cr2463   1.957       .  S
O2450      C2451   1.279       .  A
O2450     Cr2463   2.051       .  S
O2452      C2460   1.264       .  A
O2453      C2454   1.268       .  A
O2453     Cr2461   1.998       .  S
C2454      O2455   1.260       .  A
O2456      C2457   1.257       .  A
O2456     Cr2462   1.973       .  S
C2457      O2458   1.276       .  A
O2458     Cr2463   2.059       .  S
O2459      C2460   1.250       .  A
O2459     Cr2463   1.949       .  S
Cr2462     O2464   1.755       .  S
Cr2463     O2464   1.763       .  S
O2465      C2473   1.274       .  A
O2466      C2467   1.256       .  A
C2467      O2468   1.279       .  A
C2467      C2608   1.453       .  S
O2468     Cr2484   2.051       .  S
O2469      C2470   1.253       .  A
O2469     Cr2484   1.958       .  S
C2470      C2533   1.451       .  S
O2471     Cr2485   2.006       .  S
O2472     Cr2485   1.959       .  S
C2473      C2624   1.451       .  S
O2474      C2482   1.268       .  A
O2474     Cr2483   1.998       .  S
O2475      C2476   1.264   1_554  A
O2475     Cr2483   2.055   1_554  S
O2477     Cr2484   1.949       .  S
O2478      C2479   1.276       .  A
C2479      O2480   1.257       .  A
C2479      C2501   1.478       .  S
O2480     Cr2485   1.973       .  S
O2481      C2482   1.260       .  A
O2481     Cr2485   1.997       .  S
C2482      C2605   1.453       .  S
Cr2483     O2486   1.787       .  S
Cr2485     O2486   1.755       .  S
O2487      C2495   1.274       .  A
O2487     Cr2505   2.032       .  S
O2488      C2489   1.256       .  A
O2488     Cr2505   1.936       .  S
C2489      O2490   1.279       .  A
C2489      C2542   1.453       .  S
O2490     Cr2506   2.051       .  S
O2491      C2492   1.253       .  A
O2491     Cr2506   1.957       .  S
C2492      O2493   1.263       .  A
C2492      C2599   1.451       .  S
O2493     Cr2507   2.006       .  S
O2494      C2495   1.257       .  A
O2494     Cr2507   1.959       .  S
C2495      C2514   1.451       .  S
O2496      C2504   1.268       .  A
O2496     Cr2505   1.998       .  S
O2497      C2498   1.264       .  A
O2497     Cr2505   2.055       .  S
C2498      O2499   1.250       .  A
C2498      C2740   1.482       .  S
O2499     Cr2506   1.949       .  S
O2500      C2501   1.276       .  A
O2500     Cr2506   2.059       .  S
C2501      O2502   1.257       .  A
O2502     Cr2507   1.973       .  S
O2503      C2504   1.260       .  A
O2503     Cr2507   1.997       .  S
C2504      C2539   1.453       .  S
Cr2505     O2508   1.787       .  S
Cr2506     O2508   1.763       .  S
Cr2507     O2508   1.755       .  S
O2509      C2517   1.256       .  A
O2509     Cr2527   1.936       .  S
O2510      C2511   1.274       .  A
O2510     Cr2527   2.032       .  S
C2511      O2512   1.257       .  A
C2511      C2580   1.451       .  S
O2512     Cr2528   1.959       .  S
O2513      C2514   1.263       .  A
O2513     Cr2528   2.006       .  S
C2514      O2515   1.253       .  A
O2515     Cr2529   1.957       .  S
O2516      C2517   1.279       .  A
O2516     Cr2529   2.051       .  S
C2517      C2570   1.453       .  S
O2518      C2526   1.264       .  A
O2518     Cr2527   2.055       .  S
O2519      C2520   1.268       .  A
O2519     Cr2527   1.998       .  S
C2520      O2521   1.260       .  A
C2520      C2555   1.453       .  S
O2521     Cr2528   1.997       .  S
O2522      C2523   1.257       .  A
O2522     Cr2528   1.973       .  S
C2523      O2524   1.276       .  A
C2523      C2545   1.478       .  S
O2524     Cr2529   2.059       .  S
O2525      C2526   1.250       .  A
O2525     Cr2529   1.949       .  S
C2526      C2812   1.482       .  S
Cr2527     O2530   1.787       .  S
Cr2528     O2530   1.755       .  S
Cr2529     O2530   1.763       .  S
O2531      C2539   1.256       .  A
O2532      C2533   1.274       .  A
O2532     Cr2549   2.032       .  S
C2533      O2534   1.257       .  A
O2534     Cr2550   1.959       .  S
O2535      C2536   1.263       .  A
O2535     Cr2550   2.006       .  S
C2536      C2561   1.451       .  S
O2538      C2539   1.279       .  A
O2540      C2548   1.264       .  A
O2540     Cr2549   2.055       .  S
O2541      C2542   1.268       .  A
O2541     Cr2549   1.998       .  S
C2542      O2543   1.260       .  A
O2543     Cr2550   1.997       .  S
O2544      C2545   1.257       .  A
O2544     Cr2550   1.973       .  S
C2545      O2546   1.276       .  A
O2546     Cr2551   2.059       .  S
O2547      C2548   1.250       .  A
O2547     Cr2551   1.949       .  S
Cr2549     O2552   1.787       .  S
Cr2550     O2552   1.755       .  S
Cr2551     O2552   1.763       .  S
O2553      C2561   1.274       .  A
O2554      C2555   1.256       .  A
C2555      O2556   1.279       .  A
O2556     Cr2572   2.051       .  S
O2557      C2558   1.253       .  A
O2557     Cr2572   1.958       .  S
C2558      C2621   1.451       .  S
O2559     Cr2573   2.006       .  S
O2560     Cr2573   1.959       .  S
O2562      C2570   1.268       .  A
O2562     Cr2571   1.998       .  S
O2563      C2564   1.264   1_554  A
O2563     Cr2571   2.055   1_554  S
O2565     Cr2572   1.949       .  S
O2566      C2567   1.276       .  A
C2567      O2568   1.257       .  A
C2567      C2589   1.478       .  S
O2568     Cr2573   1.973       .  S
O2569      C2570   1.260       .  A
O2569     Cr2573   1.997       .  S
Cr2571     O2574   1.787       .  S
Cr2573     O2574   1.755       .  S
O2575      C2583   1.274       .  A
O2575     Cr2593   2.032       .  S
O2576      C2577   1.256       .  A
O2576     Cr2593   1.936       .  S
C2577      O2578   1.279       .  A
C2577      C2630   1.453       .  S
O2578     Cr2594   2.051       .  S
O2579      C2580   1.253       .  A
O2579     Cr2594   1.957       .  S
C2580      O2581   1.263       .  A
O2581     Cr2595   2.006       .  S
O2582      C2583   1.257       .  A
O2582     Cr2595   1.959       .  S
C2583      C2602   1.451       .  S
O2584      C2592   1.268       .  A
O2584     Cr2593   1.998       .  S
O2585      C2586   1.264       .  A
O2585     Cr2593   2.055       .  S
C2586      O2587   1.250       .  A
C2586      C2652   1.482       .  S
O2587     Cr2594   1.949       .  S
O2588      C2589   1.276       .  A
O2588     Cr2594   2.059       .  S
C2589      O2590   1.257       .  A
O2590     Cr2595   1.973       .  S
O2591      C2592   1.260       .  A
O2591     Cr2595   1.997       .  S
C2592      C2627   1.453       .  S
Cr2593     O2596   1.787       .  S
Cr2594     O2596   1.763       .  S
Cr2595     O2596   1.755       .  S
O2597      C2605   1.256       .  A
O2597     Cr2615   1.936       .  S
O2598      C2599   1.274       .  A
O2598     Cr2615   2.032       .  S
C2599      O2600   1.257       .  A
O2600     Cr2616   1.959       .  S
O2601      C2602   1.263       .  A
O2601     Cr2616   2.006       .  S
C2602      O2603   1.253       .  A
O2603     Cr2617   1.958       .  S
O2604      C2605   1.279       .  A
O2604     Cr2617   2.051       .  S
O2606      C2614   1.264       .  A
O2606     Cr2615   2.055       .  S
O2607      C2608   1.268       .  A
O2607     Cr2615   1.998       .  S
C2608      O2609   1.260       .  A
O2609     Cr2616   1.997       .  S
O2610      C2611   1.257       .  A
O2610     Cr2616   1.973       .  S
C2611      O2612   1.276       .  A
C2611      C2633   1.478       .  S
O2612     Cr2617   2.059       .  S
O2613      C2614   1.250       .  A
O2613     Cr2617   1.949       .  S
C2614      C2724   1.482       .  S
Cr2615     O2618   1.787       .  S
Cr2616     O2618   1.755       .  S
Cr2617     O2618   1.763       .  S
O2619      C2627   1.256       .  A
O2620      C2621   1.274       .  A
O2620     Cr2637   2.032       .  S
C2621      O2622   1.257       .  A
O2622     Cr2638   1.959       .  S
O2623      C2624   1.263       .  A
O2623     Cr2638   2.006       .  S
O2626      C2627   1.279       .  A
O2628      C2636   1.264       .  A
O2628     Cr2637   2.055       .  S
O2629      C2630   1.268       .  A
O2629     Cr2637   1.998       .  S
C2630      O2631   1.260       .  A
O2631     Cr2638   1.997       .  S
O2632      C2633   1.257       .  A
O2632     Cr2638   1.973       .  S
C2633      O2634   1.276       .  A
O2634     Cr2639   2.059       .  S
O2635      C2636   1.250       .  A
O2635     Cr2639   1.949       .  S
Cr2637     O2640   1.787       .  S
Cr2638     O2640   1.755       .  S
Cr2639     O2640   1.763       .  S
O2641      C2649   1.274       .  A
O2642      C2643   1.256       .  A
O2642     Cr2659   1.936       .  S
C2643      O2644   1.279       .  A
C2643      C2784   1.453       .  S
O2644     Cr2660   2.051       .  S
O2645      C2646   1.253       .  A
O2645     Cr2660   1.957       .  S
C2646      O2647   1.263       .  A
C2646      C2709   1.451       .  S
O2647     Cr2661   2.006       .  S
O2648      C2649   1.257       .  A
C2649      C2800   1.451       .  S
O2650      C2658   1.268       .  A
O2650     Cr2659   1.998       .  S
O2651      C2652   1.264       .  A
O2651     Cr2659   2.055       .  S
C2652      O2653   1.250       .  A
O2653     Cr2660   1.949       .  S
O2654      C2655   1.276       .  A
O2654     Cr2660   2.059       .  S
C2655      O2656   1.257       .  A
C2655      C2677   1.478       .  S
O2656     Cr2661   1.973       .  S
O2657      C2658   1.260       .  A
O2657     Cr2661   1.997       .  S
Cr2659     O2662   1.787       .  S
Cr2660     O2662   1.763       .  S
Cr2661     O2662   1.755       .  S
O2663      C2671   1.274       .  A
O2663     Cr2681   2.032       .  S
O2664      C2665   1.256       .  A
C2665      O2666   1.279       .  A
C2668      O2669   1.263       .  A
C2668      C2775   1.451       .  S
O2669     Cr2683   2.006       .  S
O2670      C2671   1.257       .  A
C2671      C2690   1.451       .  S
O2672      C2680   1.268       .  A
O2672     Cr2681   1.998       .  S
O2673      C2674   1.264       .  A
C2674      O2675   1.250       .  A
O2675     Cr2682   1.949       .  S
O2676      C2677   1.276       .  A
O2676     Cr2682   2.059       .  S
C2677      O2678   1.257       .  A
O2678     Cr2683   1.973       .  S
O2679     Cr2683   1.997       .  S
C2680      C2715   1.453       .  S
Cr2682     O2684   1.763       .  S
Cr2683     O2684   1.755       .  S
O2685      C2693   1.256       .  A
O2686      C2687   1.274       .  A
C2687      C2756   1.451       .  S
O2689     Cr2704   2.006       .  S
C2690      O2691   1.253       .  A
O2691     Cr2705   1.958       .  S
O2692      C2693   1.279       .  A
O2692     Cr2705   2.051       .  S
C2693      C2746   1.453       .  S
O2694      C2702   1.264   1_554  A
O2694     Cr2703   2.055   1_554  S
O2695      C2696   1.268       .  A
O2695     Cr2703   1.998       .  S
C2696      O2697   1.260       .  A
O2697     Cr2704   1.997       .  S
O2698      C2699   1.257       .  A
O2698     Cr2704   1.973       .  S
C2699      O2700   1.276       .  A
C2699      C2721   1.478       .  S
O2701     Cr2705   1.949       .  S
Cr2703     O2706   1.787       .  S
Cr2704     O2706   1.755       .  S
O2707      C2715   1.256       .  A
O2707     Cr2725   1.936       .  S
O2708      C2709   1.274       .  A
C2709      O2710   1.257       .  A
O2711      C2712   1.263       .  A
O2711     Cr2726   2.006       .  S
C2712      O2713   1.253       .  A
C2712      C2737   1.451       .  S
O2713     Cr2727   1.957       .  S
O2714      C2715   1.279       .  A
O2714     Cr2727   2.052       .  S
O2716      C2724   1.264       .  A
O2716     Cr2725   2.055       .  S
O2717      C2718   1.268   1_565  A
O2717     Cr2725   1.998       .  S
C2718      O2719   1.260       .  A
O2719     Cr2726   1.997   1_545  S
O2720      C2721   1.257       .  A
O2720     Cr2726   1.973       .  S
C2721      O2722   1.276       .  A
O2722     Cr2727   2.059       .  S
O2723      C2724   1.250       .  A
O2723     Cr2727   1.949       .  S
Cr2725     O2728   1.787       .  S
Cr2726     O2728   1.755       .  S
Cr2727     O2728   1.763       .  S
O2729      C2737   1.274       .  A
O2729     Cr2747   2.032       .  S
O2730      C2731   1.256   1_455  A
C2731      O2732   1.279       .  A
O2732     Cr2748   2.051       .  S
O2733      C2734   1.253       .  A
O2733     Cr2748   1.957       .  S
C2734      O2735   1.263       .  A
C2734      C2797   1.451       .  S
O2735     Cr2749   2.006       .  S
O2736      C2737   1.257       .  A
O2738      C2746   1.268       .  A
O2738     Cr2747   1.998       .  S
O2739      C2740   1.264       .  A
C2740      O2741   1.250       .  A
O2741     Cr2748   1.949       .  S
O2742      C2743   1.276       .  A
O2742     Cr2748   2.059       .  S
C2743      O2744   1.257       .  A
C2743      C2765   1.478       .  S
O2744     Cr2749   1.973       .  S
O2745     Cr2749   1.997   1_455  S
Cr2748     O2750   1.763       .  S
Cr2749     O2750   1.755       .  S
O2751      C2759   1.274       .  A
O2752      C2753   1.256       .  A
C2753      O2754   1.279       .  A
C2753      C2806   1.453       .  S
C2756      O2757   1.263       .  A
O2757     Cr2771   2.006       .  S
O2758      C2759   1.257       .  A
C2759      C2778   1.451       .  S
O2760      C2768   1.268   1_565  A
O2760     Cr2769   1.998       .  S
O2761      C2762   1.264       .  A
O2761     Cr2769   2.055       .  S
C2762      O2763   1.250       .  A
O2763     Cr2770   1.949       .  S
O2764      C2765   1.276       .  A
O2764     Cr2770   2.059       .  S
C2765      O2766   1.257       .  A
O2766     Cr2771   1.973       .  S
O2767      C2768   1.260       .  A
O2767     Cr2771   1.997   1_545  S
Cr2769     O2772   1.787       .  S
Cr2770     O2772   1.763       .  S
Cr2771     O2772   1.755       .  S
O2773      C2781   1.256   1_455  A
O2774      C2775   1.274       .  A
O2774     Cr2791   2.032       .  S
O2777     Cr2792   2.006       .  S
C2778      O2779   1.253       .  A
O2779     Cr2793   1.958       .  S
O2780      C2781   1.279       .  A
O2780     Cr2793   2.051       .  S
O2782      C2790   1.264   1_554  A
O2783      C2784   1.268       .  A
O2785     Cr2792   1.997   1_455  S
O2786      C2787   1.257       .  A
O2786     Cr2792   1.973       .  S
C2787      O2788   1.276       .  A
C2787      C2809   1.478       .  S
O2789     Cr2793   1.949       .  S
Cr2792     O2794   1.755       .  S
O2795      C2803   1.256       .  A
O2796      C2797   1.274       .  A
O2796     Cr2813   2.032       .  S
C2797      O2798   1.257       .  A
O2799      C2800   1.263       .  A
O2799     Cr2814   2.006       .  S
C2800      O2801   1.253       .  A
O2801     Cr2815   1.957       .  S
O2802      C2803   1.279       .  A
O2802     Cr2815   2.051       .  S
O2804      C2812   1.264       .  A
O2805      C2806   1.268       .  A
O2805     Cr2813   1.998       .  S
C2806      O2807   1.260       .  A
O2808      C2809   1.257       .  A
O2808     Cr2814   1.973       .  S
C2809      O2810   1.276       .  A
O2810     Cr2815   2.059       .  S
O2811      C2812   1.250       .  A
O2811     Cr2815   1.949       .  S
Cr2814     O2816   1.755       .  S
Cr2815     O2816   1.763       .  S
