geometry optimzed in LAMMPS
_audit_creation_date              2020-11-30 
_audit_creation_method            'lammps2cif' 
_symmetry_space_group_name_H-M    'P1' 
_symmetry_Int_Tables_number       1 
_symmetry_cell_setting            triclinic 
loop_ 
_symmetry_equiv_pos_as_xyz 
  x,y,z 
_cell_length_a                    40.4854958995534 
_cell_length_b                    40.46122187801573 
_cell_length_c                    57.41182669813281 
_cell_angle_alpha                 89.7157812654577 
_cell_angle_beta                  90.50387479170561 
_cell_angle_gamma                 119.87718383294317 
loop_ 
_atom_site_label 
_atom_site_type_symbol 
_atom_site_fract_x 
_atom_site_fract_y 
_atom_site_fract_z 
_atom_site_charge 
O1          O  0.33516898  0.38040189  0.86677964    -0.82930
C2          C  0.34287832  0.32079174  0.77971485     0.96420
O3          O  0.34020238  0.30462105  0.79890174    -0.72050
O4          O  0.39419296  0.36104353  0.82063217    -0.75640
Al5        Al  0.34471627  0.32578308  0.82906500     1.48980
C6          C  0.41225058  0.39386160  0.82909048     0.91670
O7          O  0.36192291  0.42988640  0.80707745    -0.81860
O8          O  0.25641838  0.35097853  0.81913554    -0.75420
Al9        Al  0.34680235  0.40192881  0.83581750     1.90120
O10         O  0.30965428  0.39356450  0.78721065    -0.74490
O11         O  0.26719204  0.28760515  0.80606198    -0.74340
O12         O  0.32573600  0.33956530  0.77686862    -0.80000
O13         O  0.29642391  0.28789222  0.83811133    -0.78200
O14         O  0.32736821  0.35712671  0.82164081    -1.14340
O15         O  0.35467370  0.33959431  0.86064900    -0.73530
C16         C  0.34683773  0.35861624  0.87448239     0.97180
C17         C  0.34004226  0.42488567  0.78999467     0.93580
Al18       Al  0.29199528  0.34346771  0.79928608     1.55560
O19         O  0.39578587  0.40979291  0.83826068    -0.78150
C20         C  0.27349646  0.26929986  0.82208740     0.97750
C21         C  0.26754787  0.38282169  0.82972017     0.92630
O22         O  0.30179491  0.40293782  0.83573147    -0.83470
O23         O  0.01796777  0.38718748  0.62932213    -0.82930
C24         C  0.44821814  0.31637653  0.71287179     0.96420
O25         O  0.43483970  0.30151198  0.69335238    -0.72050
O26         O  0.43889454  0.36074487  0.67483720    -0.75640
Al27       Al  0.45228554  0.32615196  0.66400615     1.48980
C28         C  0.45487281  0.39543381  0.66983240     0.91670
O29         O  0.04025297  0.42584493  0.69114931    -0.81860
O30         O  0.06357991  0.34642613  0.67254797    -0.75420
Al31       Al  0.02737275  0.40274323  0.66116979     1.90120
O32         O  0.05538834  0.38647787  0.70768958    -0.74490
O33         O  0.48954412  0.28401293  0.68419467    -0.74340
O34         O  0.48399964  0.33338766  0.71615884    -0.80000
O35         O  0.46127452  0.28786073  0.65270331    -0.78200
O36         O  0.00085144  0.35576277  0.67242647    -1.14340
O37         O  0.45749045  0.34511404  0.63322499    -0.73530
C38         C  0.48484603  0.36827961  0.62087767     0.97180
C39         C  0.05742091  0.41859876  0.70694906     0.93580
Al40       Al  0.02144218  0.33836539  0.69331540     1.55560
O41         O  0.48745764  0.41286744  0.66112942    -0.78150
C42         C  0.46532621  0.26747035  0.66780570     0.97750
C43         C  0.08472983  0.37906857  0.66299461     0.92630
O44         O  0.07206815  0.40141468  0.65949390    -0.83470
O45         O  0.36769360  0.04071391  0.70059128    -0.82930
C46         C  0.29535060  0.46858797  0.61645410     0.96420
O47         O  0.28267656  0.45414604  0.63619568    -0.72050
O48         O  0.34167868  0.46022979  0.65633662    -0.75640
Al49       Al  0.30620205  0.47293306  0.66611590     1.48980
C50         C  0.37563504  0.47593948  0.66276106     0.91670
O51         O  0.40455516  0.06205176  0.63780318    -0.81860
O52         O  0.32406495  0.08339971  0.65795151    -0.75420
Al53       Al  0.38236768  0.04953731  0.66848543     1.90120
O54         O  0.36276251  0.07510118  0.62297450    -0.74490
O55         O  0.26258548  0.00899045  0.64601642    -0.74340
O56         O  0.31117480  0.00441889  0.61407355    -0.80000
O57         O  0.26650952  0.47981774  0.67685469    -0.78200
O58         O  0.33484336  0.02163821  0.65768981    -1.14340
O59         O  0.32443368  0.48018749  0.69725346    -0.73530
C60         C  0.34747039  0.00808568  0.70949976     0.97180
C61         C  0.39498739  0.07788302  0.62220044     0.93580
Al62       Al  0.31613084  0.04128559  0.63718574     1.55560
O63         O  0.39305706  0.01004369  0.66926516    -0.78150
C64         C  0.24626096  0.48426175  0.66193202     0.97750
C65         C  0.35734601  0.10603689  0.66643383     0.92630
O66         O  0.38075764  0.09462924  0.66987441    -0.83470
O67         O  0.37229002  0.36768897  0.46062939    -0.82930
C68         C  0.30091011  0.36961538  0.54449759     0.96420
O69         O  0.28916291  0.37112641  0.52439685    -0.72050
O70         O  0.34857726  0.42509754  0.50545283    -0.75640
Al71       Al  0.31340504  0.37633000  0.49521861     1.48980
C72         C  0.38290858  0.44249692  0.49974659     0.91670
O73         O  0.41372245  0.39107667  0.52228839    -0.81860
O74         O  0.33874185  0.28675575  0.50626001    -0.75420
Al75       Al  0.38966828  0.37782257  0.49224387     1.89760
O76         O  0.37460030  0.33812761  0.54058453    -0.74490
O77         O  0.27242311  0.29551076  0.51501851    -0.74340
O78         O  0.31800439  0.35096528  0.54787226    -0.80000
O79         O  0.27525244  0.32903029  0.48446998    -0.78200
O80         O  0.34312062  0.35757504  0.50407813    -1.14340
O81         O  0.33089175  0.38725678  0.46395561    -0.73530
C82         C  0.35188396  0.37984486  0.45153973     0.97180
C83         C  0.40625207  0.36844855  0.53921998     0.93580
Al84       Al  0.32664349  0.32033050  0.52540002     1.55560
O85         O  0.39870899  0.42662516  0.49006023    -0.78150
C86         C  0.25552598  0.30343470  0.49881163     0.97750
C87         C  0.37242220  0.29997720  0.49787898     0.92630
O88         O  0.39112189  0.33400619  0.49228248    -0.83470
O89         O  0.01727536  0.15765900  0.53726092    -0.82930
C90         C  0.45075566  0.14982251  0.45323057     0.96420
O91         O  0.44521723  0.13170841  0.47209184    -0.72050
O92         O  0.46164426  0.11078281  0.51116276    -0.75640
Al93       Al  0.46117007  0.15433807  0.50153804     1.48980
C94         C  0.48071958  0.09734612  0.50264469     0.91670
O95         O  0.07309561  0.17754014  0.47879670    -0.81860
O96         O  0.07355909  0.24918379  0.48455891    -0.75420
Al97       Al  0.04215354  0.16944535  0.50645517     1.90120
O98         O  0.04298523  0.19239071  0.45254094    -0.74490
O99         O  0.49925772  0.24202342  0.48673242    -0.74340
O100        O  0.47541719  0.18528145  0.45199638    -0.80000
O101        O  0.44664916  0.18961199  0.49411403    -0.78200
O102        O  0.00878158  0.17992425  0.49270126    -1.14340
O103        O  0.47576908  0.17650257  0.53121005    -0.73530
C104        C  0.49124023  0.16362930  0.54492145     0.97180
C105        C  0.06606846  0.18114459  0.45768922     0.93580
Al106      Al  0.02204229  0.21516353  0.47090034     1.55560
O107        O  0.51489845  0.11812096  0.49693809    -0.78150
C108        C  0.46350104  0.22456875  0.49088614     0.97750
C109        C  0.09065613  0.24496391  0.50226340     0.92630
O110        O  0.07158288  0.21940982  0.51674598    -0.83470
O111        O  0.33657115  0.49021195  0.29255537    -0.82930
C112        C  0.34712030  0.05611212  0.38092264     0.96420
O113        O  0.34708908  0.07181948  0.36197140    -0.72050
O114        O  0.39950684  0.06748936  0.33866102    -0.75640
Al115      Al  0.34943776  0.05511105  0.33116821     1.48980
C116        C  0.41611103  0.05214101  0.32889657     0.91670
O117        O  0.36307646  0.46523408  0.35196843    -0.81860
O118        O  0.25840267  0.44314205  0.33990793    -0.75420
Al119      Al  0.34806511  0.47906563  0.32338574     1.90120
O120        O  0.31136322  0.45073024  0.37157794    -0.74490
O121        O  0.27183870  0.01721902  0.35392544    -0.74340
O122        O  0.32916282  0.02022309  0.38262366    -0.80000
O123        O  0.30169637  0.04781717  0.32268979    -0.78200
O124        O  0.33042774  0.00586004  0.33790136    -1.14340
O125        O  0.35758366  0.05075152  0.29944905    -0.73530
C126        C  0.35094733  0.02430224  0.28546996     0.97180
C127        C  0.34125499  0.44880402  0.36893945     0.93580
Al128      Al  0.29509248  0.48463665  0.35999204     1.55560
O129        O  0.39796688  0.01890627  0.32090006    -0.78150
C130        C  0.27846412  0.04263058  0.33851879     0.97750
C131        C  0.26795868  0.42104400  0.32968095     0.92630
O132        O  0.30174888  0.43347231  0.32329215    -0.83470
O133        O  0.14352168  0.14365325  0.36661200    -0.82930
C134        C  0.15384094  0.21070206  0.27906024     0.96420
O135        O  0.15243137  0.22517892  0.29803589    -0.72050
O136        O  0.09394771  0.16398389  0.31320218    -0.75640
Al137      Al  0.13981067  0.19970882  0.32727452     1.48980
C138        C  0.07476220  0.12980073  0.31953644     0.91670
O139        O  0.13193628  0.09890283  0.30622557    -0.81860
O140        O  0.23201921  0.17908706  0.32683017    -0.75420
Al141      Al  0.13943582  0.12454495  0.33533624     1.90120
O142        O  0.18663873  0.13816571  0.29024929    -0.74490
O143        O  0.22220247  0.24180675  0.31300555    -0.74340
O144        O  0.17175698  0.19253859  0.27828983    -0.80000
O145        O  0.18452424  0.23808851  0.34126095    -0.78200
O146        O  0.16052264  0.17045640  0.32246073    -1.14340
O147        O  0.12112145  0.18136038  0.35759234    -0.73530
C148        C  0.12715581  0.16197061  0.37245821     0.97180
C149        C  0.15681982  0.10575578  0.29099593     0.93580
Al150      Al  0.20051708  0.18713310  0.30375035     1.55560
O151        O  0.08915296  0.11445177  0.33198941    -0.78150
C152        C  0.21219506  0.25829717  0.32815011     0.97750
C153        C  0.22010406  0.14690857  0.33704343     0.92630
O154        O  0.18507750  0.12526502  0.34027499    -0.83470
O155        O  0.47079793  0.13402748  0.12500224    -0.82930
C156        C  0.04887215  0.19977112  0.20564308     0.96420
O157        O  0.05150453  0.18532153  0.18686657    -0.72050
O158        O  0.02988414  0.14228939  0.15044166    -0.75640
Al159      Al  0.03181117  0.18867660  0.15801981     1.48980
C160        C  0.00875815  0.10954733  0.15865690     0.91670
O161        O  0.42046695  0.10312648  0.18475867    -0.81860
O162        O  0.42039654  0.17205166  0.18031152    -0.75420
Al163      Al  0.44923608  0.12401006  0.15634364     1.90120
O164        O  0.45513733  0.14628229  0.21075487    -0.74490
O165        O  0.49405878  0.23907487  0.17500265    -0.74340
O166        O  0.02272649  0.20833603  0.20800580    -0.80000
O167        O  0.04603296  0.23992510  0.16357945    -0.78200
O168        O  0.48488949  0.16776283  0.16875030    -1.14340
O169        O  0.01557334  0.19361362  0.12815482    -0.73530
C170        C  0.49664430  0.16439040  0.11573072     0.97180
C171        C  0.42956611  0.11276843  0.20578818     0.93580
Al172      Al  0.47384797  0.19009529  0.19148558     1.55560
O173        O  0.47541313  0.09871473  0.16513837    -0.78150
C174        C  0.02877099  0.25746990  0.16848225     0.97750
C175        C  0.40193007  0.15170120  0.16267215     0.92630
O176        O  0.42009471  0.14601949  0.14703831    -0.83470
O177        O  0.12167414  0.48356294  0.20283460    -0.82930
C178        C  0.18722938  0.06461250  0.11856053     0.96420
O179        O  0.19633623  0.07696567  0.13887195    -0.72050
O180        O  0.13342256  0.06207998  0.15805133    -0.75640
Al181      Al  0.17345858  0.05434177  0.16739775     1.48980
C182        C  0.09968675  0.04261893  0.16486238     0.91670
O183        O  0.07586833  0.46113735  0.14174399    -0.81860
O184        O  0.15934045  0.44393306  0.15292064    -0.75420
Al185      Al  0.10210385  0.47422010  0.17122355     1.90120
O186        O  0.11951353  0.45920398  0.12021815    -0.74490
O187        O  0.22018323  0.02027090  0.14706063    -0.74340
O188        O  0.17327911  0.02948441  0.11468574    -0.80000
O189        O  0.21666643  0.05176289  0.17706977    -0.78200
O190        O  0.14775457  0.00548937  0.15838283    -1.14340
O191        O  0.15705057  0.04538054  0.19839266    -0.73530
C192        C  0.13950639  0.01686003  0.21135437     0.97180
C193        C  0.08593323  0.45290028  0.12287304     0.93580
Al194      Al  0.16689473  0.48955734  0.13594102     1.55560
O195        O  0.08722186  0.01068786  0.17426434    -0.78150
C196        C  0.23654102  0.04475553  0.16332547     0.97750
C197        C  0.12794995  0.42006703  0.16251978     0.92630
O198        O  0.10590595  0.43056373  0.17025848    -0.83470
O199        O  0.12258761  0.16671512  0.96210317    -0.82930
C200        C  0.19292645  0.17062083  0.04742851     0.96420
O201        O  0.20710364  0.16997261  0.02811062    -0.72050
O202        O  0.14771119  0.11425652  0.00989012    -0.75640
Al203      Al  0.18269486  0.16190062  0.99834662     1.48980
C204        C  0.11360700  0.09568809  0.00358323     0.91670
O205        O  0.08334264  0.15267246  0.02359697    -0.81860
O206        O  0.16325970  0.25426918  0.00329367    -0.75420
Al207      Al  0.10666310  0.16158916  0.99376454     1.90120
O208        O  0.12326887  0.20766491  0.03908171    -0.74490
O209        O  0.22589974  0.24249252  0.01639976    -0.74340
O210        O  0.17624296  0.18991607  0.04925691    -0.80000
O211        O  0.22105939  0.20805858  0.98621092    -0.78200
O212        O  0.15354175  0.18192791  0.00541036    -1.14340
O213        O  0.16433252  0.14784382  0.96742744    -0.73530
C214        C  0.14240866  0.15320053  0.95427102     0.97180
C215        C  0.09076725  0.17812735  0.03859036     0.93580
Al216      Al  0.17133274  0.22097631  0.02524217     1.55560
O217        O  0.09657782  0.11153590  0.99472481    -0.78150
C218        C  0.24190333  0.23331534  0.00058549     0.97750
C219        C  0.13039672  0.24281837  0.99384428     0.92630
O220        O  0.10790270  0.20778800  0.99086342    -0.83470
O221        O  0.47030497  0.36091097  0.03314732    -0.82930
C222        C  0.03811060  0.36728317  0.94612687     0.96420
O223        O  0.05274765  0.36718742  0.96546074    -0.72050
O224        O  0.04409755  0.41961052  0.98503223    -0.75640
Al225      Al  0.03525220  0.37214597  0.99521509     1.48980
C226        C  0.02794639  0.43653275  0.99334768     0.91670
O227        O  0.44021180  0.37771984  0.97239909    -0.81860
O228        O  0.42537600  0.27725254  0.98737146    -0.75420
Al229      Al  0.45732140  0.36755125  0.00160471     1.90120
O230        O  0.43112285  0.32672124  0.95398323    -0.74490
O231        O  0.50063262  0.29321544  0.97510271    -0.74340
O232        O  0.00223512  0.34793789  0.94374853    -0.80000
O233        O  0.03105446  0.32627975  0.00584523    -0.78200
O234        O  0.48577057  0.35049893  0.98829593    -1.14340
O235        O  0.03085695  0.38385239  0.02616502    -0.73530
C236        C  0.50460656  0.37779052  0.04005103     0.97180
C237        C  0.42494407  0.35419635  0.95592815     0.93580
Al238      Al  0.46648385  0.31378950  0.96695167     1.55560
O239        O  0.49539361  0.41855609  0.00207195    -0.78150
C240        C  0.02599768  0.30148556  0.99091926     0.97750
C241        C  0.40292769  0.28612751  0.99782138     0.92630
O242        O  0.41402617  0.32007503  0.00334390    -0.83470
O243        O  0.14260498  0.04036319  0.79448608    -0.82930
C244        C  0.14598304  0.47521379  0.88003589     0.96420
O245        O  0.14592292  0.46008416  0.86095380    -0.72050
O246        O  0.09017175  0.46402238  0.84249324    -0.75640
Al247      Al  0.13746908  0.47593348  0.83115944     1.48980
C248        C  0.07140651  0.47929666  0.83577418     0.91670
O249        O  0.12718098  0.06536612  0.85598426    -0.81860
O250        O  0.22905633  0.08701104  0.83571288    -0.75420
Al251      Al  0.13676372  0.05136917  0.82605538     1.90120
O252        O  0.18280316  0.08178305  0.87151558    -0.74490
O253        O  0.21790205  0.01364617  0.84931764    -0.74340
O254        O  0.16487575  0.01116108  0.88210961    -0.80000
O255        O  0.18341519  0.48320825  0.81911843    -0.78200
O256        O  0.15729128  0.02510832  0.83799676    -1.14340
O257        O  0.12345015  0.47983185  0.80036512    -0.73530
C258        C  0.12940098  0.00683433  0.78691268     0.97180
C259        C  0.15228959  0.08312322  0.87134544     0.93580
Al260      Al  0.19617030  0.04665859  0.85795564     1.55560
O261        O  0.08698501  0.01144256  0.82632431    -0.78150
C262        C  0.20954791  0.48888672  0.83323391     0.97750
C263        C  0.21756294  0.10822411  0.82599038     0.92630
O264        O  0.18256328  0.09631788  0.82347201    -0.83470
C265        C  0.10213498  0.39981380  0.92732239    -0.10290
C266        C  0.06416599  0.39245303  0.92750452     0.05900
C267        C  0.05450134  0.41443772  0.91272884    -0.04060
C268        C  0.08241516  0.44296226  0.89858738    -0.08510
C269        C  0.12013588  0.45006005  0.89845750     0.05020
C270        C  0.12971672  0.42781487  0.91276346    -0.03530
Br271      Br  0.18027325  0.43512059  0.91296520    -0.03230
H272        H  0.11053834  0.38385264  0.93874138     0.08930
H273        H  0.07439816  0.45938908  0.88732724     0.06950
Br274      Br  0.50439658  0.40848351  0.91182950    -0.03660
C275        C  0.11193273  0.08902373  0.90187827    -0.10290
C276        C  0.14635363  0.10542362  0.88957436     0.05900
C277        C  0.17608888  0.14157412  0.89654906    -0.04060
C278        C  0.17256285  0.15896980  0.91654167    -0.08510
C279        C  0.13954963  0.14117474  0.92990608     0.05020
C280        C  0.10849425  0.10646866  0.92209685    -0.03530
Br281      Br  0.06288883  0.07945919  0.94006451    -0.03230
H282        H  0.08872318  0.06133011  0.89677819     0.08930
H283        H  0.19668698  0.18546764  0.92250843     0.06950
Br284      Br  0.22270181  0.16860279  0.87996083    -0.03660
C285        C  0.08939357  0.30814253  0.00264298    -0.10290
C286        C  0.05472537  0.28810362  0.98985808     0.05900
C287        C  0.05136638  0.25968545  0.97431994    -0.04060
C288        C  0.08017625  0.25008625  0.97331314    -0.08510
C289        C  0.11269499  0.26694616  0.98807172     0.05020
C290        C  0.11826433  0.29822082  0.00161917    -0.03530
Br291      Br  0.16420921  0.32783754  0.01926444    -0.03230
H292        H  0.09430641  0.33188320  0.01361502     0.08930
H293        H  0.07541308  0.22664157  0.96207947     0.06950
Br294      Br  0.00732974  0.23061138  0.95493333    -0.03660
C295        C  0.34508225  0.26834044  0.02091488    -0.10290
C296        C  0.36113520  0.26041773  0.00144918     0.05900
C297        C  0.33671882  0.24150208  0.98249553    -0.04060
C298        C  0.29897077  0.23466200  0.98227403    -0.08510
C299        C  0.28379323  0.24553190  0.00098237     0.05020
C300        C  0.30733909  0.26128448  0.02089346    -0.03530
Br301      Br  0.29059223  0.27426576  0.04882608    -0.03230
H302        H  0.36318039  0.28307266  0.03573016     0.08930
H303        H  0.28136926  0.22066798  0.96717178     0.06950
Br304      Br  0.35398774  0.22590578  0.95597151    -0.03660
C305        C  0.08904886  0.49516880  0.99523612    -0.10290
C306        C  0.04919796  0.47749788  0.99570854     0.05900
C307        C  0.03133256  0.49860586  0.00156869    -0.04060
C308        C  0.05365885  0.03691936  0.00626834    -0.08510
C309        C  0.09330530  0.05478055  0.00470389     0.05020
C310        C  0.11133343  0.03362166  0.99978082    -0.03530
Br311      Br  0.16556454  0.05503931  0.99735650    -0.03230
H312        H  0.10315354  0.47900823  0.99152512     0.08930
H313        H  0.03983214  0.05332857  0.01011437     0.06950
Br314      Br  0.47714779  0.47856680  0.00260874    -0.03660
C315        C  0.20860529  0.12148889  0.06200606    -0.10290
C316        C  0.19410029  0.14617844  0.06679726     0.05900
C317        C  0.17780433  0.14341698  0.08892946    -0.04060
C318        C  0.17662001  0.11701127  0.10530108    -0.08510
C319        C  0.19033984  0.09202859  0.10020860     0.05020
C320        C  0.20652397  0.09451186  0.07830425    -0.03530
Br321      Br  0.22721157  0.06261903  0.07013414    -0.03230
H322        H  0.22096711  0.12239329  0.04519954     0.08930
H323        H  0.16387055  0.11533051  0.12209820     0.06950
Br324      Br  0.15539735  0.17345648  0.09814778    -0.03660
C325        C  0.04758364  0.43517660  0.06154838    -0.10290
C326        C  0.01721683  0.39760777  0.06272428     0.05900
C327        C  0.00517090  0.38035746  0.08469900    -0.04060
C328        C  0.02613223  0.39978395  0.10483309    -0.08510
C329        C  0.05900455  0.43612606  0.10305914     0.05020
C330        C  0.06872274  0.45406276  0.08113917    -0.03530
Br331      Br  0.11202124  0.50347819  0.07600294    -0.03230
H332        H  0.05662939  0.44929460  0.04480946     0.08930
H333        H  0.01823623  0.38557634  0.12157136     0.06950
Br334      Br  0.46262030  0.32986723  0.08755441    -0.03660
C335        C  0.03294753  0.13737038  0.06263501    -0.10290
C336        C  0.06127850  0.17387565  0.05550149     0.05900
C337        C  0.06094902  0.20587747  0.06494984    -0.04060
C338        C  0.03544097  0.20124877  0.08244959    -0.08510
C339        C  0.01038040  0.16524763  0.09170210     0.05020
C340        C  0.00756274  0.13275113  0.08058744    -0.03530
Br341      Br  0.97162279  0.08153604  0.08970743    -0.03230
H342        H  0.03168971  0.11230672  0.05503343     0.08930
H343        H  0.03732256  0.22655697  0.09013935     0.06950
Br344      Br  0.09485746  0.25729515  0.05569452    -0.03660
C345        C  0.29479737  0.10507050  0.17682339    -0.10290
C346        C  0.27930274  0.06998433  0.16462761     0.05900
C347        C  0.30476321  0.06314220  0.15171960    -0.04060
C348        C  0.34356555  0.09095556  0.15063420    -0.08510
C349        C  0.35909766  0.12618191  0.16261707     0.05020
C350        C  0.33390906  0.13268141  0.17603204    -0.03530
Br351      Br  0.35075123  0.17949663  0.19256555    -0.03230
H352        H  0.27618312  0.11180273  0.18663422     0.08930
H353        H  0.36198533  0.08412680  0.14070714     0.06950
Br354      Br  0.28915166  0.51579937  0.13596537    -0.03660
C355        C  0.08066332  0.31872710  0.18463521    -0.10290
C356        C  0.05230122  0.29986227  0.16742190     0.05900
C357        C  0.05460975  0.31999071  0.14689201    -0.04060
C358        C  0.08330849  0.35840820  0.14436584    -0.08510
C359        C  0.11086241  0.37785856  0.16195468     0.05020
C360        C  0.10916215  0.35730503  0.18220713    -0.03530
Br361      Br  0.14493722  0.38142692  0.20713183    -0.03230
H362        H  0.08083528  0.30319905  0.20002417     0.08930
H363        H  0.08278578  0.37387670  0.12903639     0.06950
Br364      Br  0.51906208  0.29573673  0.12186403    -0.03660
C365        C  0.06462854  0.06866517  0.18345990    -0.10290
C366        C  0.07439316  0.05741063  0.16299756     0.05900
C367        C  0.05776440  0.05780984  0.14160457    -0.04060
C368        C  0.03311229  0.07216947  0.14068980    -0.08510
C369        C  0.02461031  0.08509280  0.16101308     0.05020
C370        C  0.03971391  0.08261309  0.18258899    -0.03530
Br371      Br  0.03040819  0.10120910  0.21081124    -0.03230
H372        H  0.07726443  0.06755993  0.20001067     0.08930
H373        H  0.02192586  0.07486569  0.12397153     0.06950
Br374      Br  0.06785269  0.03924968  0.11354417    -0.03660
C375        C  0.10759088  0.19954782  0.21918213    -0.10290
C376        C  0.07752155  0.20656853  0.22434125     0.05900
C377        C  0.07565599  0.21855070  0.24708966    -0.04060
C378        C  0.10212496  0.22146370  0.26398685    -0.08510
C379        C  0.13093903  0.21253725  0.25910625     0.05020
C380        C  0.13390244  0.20225232  0.23615847    -0.03530
Br381      Br  0.17304953  0.19170273  0.22660184    -0.03230
H382        H  0.11047151  0.19109436  0.20178930     0.08930
H383        H  0.09899550  0.22943421  0.28146476     0.06950
Br384      Br  0.03727575  0.23004374  0.25701159    -0.03660
C385        C  0.11415409  0.05088020  0.26499045    -0.10290
C386        C  0.15095542  0.07577246  0.27374095     0.05900
C387        C  0.18167699  0.07246433  0.26492354    -0.04060
C388        C  0.17585282  0.04738983  0.24663919    -0.08510
C389        C  0.13989498  0.02551404  0.23630888     0.05020
C390        C  0.10854662  0.02623098  0.24627322    -0.03530
Br391      Br  0.05853664  0.99805301  0.23283974    -0.03230
H392        H  0.09001889  0.05251961  0.27156278     0.08930
H393        H  0.20036215  0.04771786  0.23891150     0.06950
Br394      Br  0.23283619  0.10229671  0.27607935    -0.03660
C395        C  0.40892538  0.06093005  0.26364122    -0.10290
C396        C  0.36935381  0.03690672  0.26260639     0.05900
C397        C  0.34987117  0.03513109  0.24186759    -0.04060
C398        C  0.37023269  0.05838575  0.22283820    -0.08510
C399        C  0.40958693  0.08497357  0.22478697     0.05020
C400        C  0.42879680  0.08569782  0.24556517    -0.03530
Br401      Br  0.48145534  0.12143011  0.25176623    -0.03230
H402        H  0.42415827  0.06298144  0.27960407     0.08930
H403        H  0.35486092  0.05752128  0.20711469     0.06950
Br404      Br  0.29561519  0.50415218  0.23971478    -0.03660
C405        C  0.21819504  0.31711213  0.34713733    -0.10290
C406        C  0.22673042  0.30066389  0.32805865     0.05900
C407        C  0.24207684  0.32361086  0.30797413    -0.04060
C408        C  0.25006480  0.36167841  0.30784357    -0.08510
C409        C  0.24352908  0.37870420  0.32735728     0.05020
C410        C  0.22632342  0.35532643  0.34693643    -0.03530
Br411      Br  0.21564792  0.37465974  0.37457243    -0.03230
H412        H  0.20514657  0.30012805  0.36253349     0.08930
H413        H  0.26387823  0.37905662  0.29268754     0.06950
Br414      Br  0.25269669  0.30536030  0.27978505    -0.03660
C415        C  0.22712999  0.09632531  0.35742546    -0.10290
C416        C  0.24390967  0.12898280  0.34286705     0.05900
C417        C  0.27516798  0.13482203  0.32933708    -0.04060
C418        C  0.28522933  0.10618239  0.32815921    -0.08510
C419        C  0.26533842  0.07138039  0.34064899     0.05020
C420        C  0.23709250  0.06771798  0.35628488    -0.03530
Br421      Br  0.20887070  0.02344441  0.37540682    -0.03230
H422        H  0.20360206  0.09132876  0.36855982     0.08930
H423        H  0.30878608  0.11126616  0.31704770     0.06950
Br424      Br  0.30383985  0.18008083  0.31107228    -0.03660
C425        C  0.47525789  0.05167802  0.32336736    -0.10290
C426        C  0.45675066  0.07299415  0.32502313     0.05900
C427        C  0.47626498  0.11211681  0.31951493    -0.04060
C428        C  0.01488542  0.12986200  0.31473212    -0.08510
C429        C  0.03402939  0.10903025  0.31549018     0.05020
C430        C  0.01348998  0.06919284  0.31812715    -0.03530
Br431      Br  0.03575019  0.03707840  0.31522636    -0.03230
H432        H  0.45992675  0.02113773  0.32626360     0.08930
H433        H  0.03038477  0.16045320  0.31211395     0.06950
Br434      Br  0.45232954  0.14281657  0.31761498    -0.03660
C435        C  0.40061486  0.13806625  0.42356650    -0.10290
C436        C  0.42689912  0.12856295  0.43303372     0.05900
C437        C  0.42613014  0.09512937  0.42536584    -0.04060
C438        C  0.39842190  0.07100772  0.40941751    -0.08510
C439        C  0.37182185  0.08007157  0.40012207     0.05020
C440        C  0.37346352  0.11433362  0.40696644    -0.03530
Br441      Br  0.33803910  0.12876927  0.39501856    -0.03230
H442        H  0.40050059  0.16335619  0.42956994     0.08930
H443        H  0.39861988  0.04572109  0.40350534     0.06950
Br444      Br  0.46390370  0.08230655  0.43485162    -0.03660
C445        C  0.05929787  0.15549041  0.41843357    -0.10290
C446        C  0.08272212  0.17080227  0.43804784     0.05900
C447        C  0.12062234  0.17792127  0.43706749    -0.04060
C448        C  0.13485141  0.17239726  0.41591468    -0.08510
C449        C  0.11138476  0.15918291  0.39596771     0.05020
C450        C  0.07287459  0.14914735  0.39789410    -0.03530
Br451      Br  0.03680051  0.12755301  0.37293850    -0.03230
H452        H  0.03011559  0.14951772  0.41873879     0.08930
H453        H  0.16460676  0.18042393  0.41471680     0.06950
Br454      Br  0.15481794  0.19840787  0.46307238    -0.03660
C455        C  0.38603257  0.42308700  0.41883884    -0.10290
C456        C  0.35421903  0.38933600  0.42662557     0.05900
C457        C  0.32124860  0.37201002  0.41265527    -0.04060
C458        C  0.31883028  0.39052422  0.39266083    -0.08510
C459        C  0.34917633  0.42623160  0.38609179     0.05020
C460        C  0.38382801  0.44151685  0.39857180    -0.03530
Br461      Br  0.42698511  0.48971306  0.39052975    -0.03230
H462        H  0.41142150  0.43695791  0.42963957     0.08930
H463        H  0.29238798  0.37791044  0.38286042     0.06950
Br464      Br  0.27806913  0.32418028  0.42112747    -0.03660
C465        C  0.19121390  0.26265369  0.51651804    -0.10290
C466        C  0.21303772  0.28785090  0.49879006     0.05900
C467        C  0.19447295  0.30212852  0.48391254    -0.04060
C468        C  0.15539767  0.28935394  0.48619518    -0.08510
C469        C  0.13343883  0.26355245  0.50359682     0.05020
C470        C  0.15247406  0.25099295  0.51935243    -0.03530
Br471      Br  0.12882042  0.21794314  0.54560369    -0.03230
H472        H  0.20461189  0.25247000  0.52878660     0.08930
H473        H  0.14196238  0.29956892  0.47397955     0.06950
Br474      Br  0.21944076  0.34053407  0.46043824    -0.03660
C475        C  0.37701299  0.24002182  0.49526919    -0.10290
C476        C  0.39483197  0.27966226  0.49594126     0.05900
C477        C  0.43585777  0.30078970  0.49459986    -0.04060
C478        C  0.45694864  0.28224824  0.49281476    -0.08510
C479        C  0.43931725  0.24287793  0.49209628     0.05020
C480        C  0.39844047  0.22149305  0.49300802    -0.03530
Br481      Br  0.36842540  0.16686442  0.49025981    -0.03230
H482        H  0.34622690  0.22334097  0.49599581     0.08930
H483        H  0.48775789  0.29898379  0.49216522     0.06950
Br484      Br  0.46810329  0.35551913  0.49557043    -0.03660
C485        C  0.44005945  0.49560179  0.51489852    -0.10290
C486        C  0.40555364  0.48219474  0.50272036     0.05900
C487        C  0.39848497  0.50590049  0.48845306    -0.04060
C488        C  0.42601940  0.04349858  0.48686500    -0.08510
C489        C  0.46049671  0.05737367  0.49911689     0.05020
C490        C  0.46784945  0.03353835  0.51319856    -0.03530
Br491      Br  0.01358096  0.05209683  0.53146083    -0.03230
H492        H  0.44553076  0.47631512  0.52523174     0.08930
H493        H  0.41959529  0.06230689  0.47689868     0.06950
Br494      Br  0.35314701  0.48797256  0.46972382    -0.03660
C495        C  0.28090332  0.40405365  0.60195926    -0.10290
C496        C  0.29345457  0.44285479  0.59697711     0.05900
C497        C  0.30714720  0.45612737  0.57426728    -0.04060
C498        C  0.30831875  0.43132756  0.55771653    -0.08510
C499        C  0.29726144  0.39324870  0.56307350     0.05020
C500        C  0.28328685  0.37964072  0.58547977    -0.03530
Br501      Br  0.26591903  0.32772545  0.59405895    -0.03230
H502        H  0.26987709  0.39261480  0.61902554     0.08930
H503        H  0.31900952  0.44237116  0.54052838     0.06950
Br504      Br  0.32556196  0.00766019  0.56423078    -0.03660
C505        C  0.43468549  0.14189387  0.56922462    -0.10290
C506        C  0.47156975  0.14725162  0.56738721     0.05900
C507        C  0.48387008  0.13030235  0.58442792    -0.04060
C508        C  0.45896682  0.10821375  0.60240242    -0.08510
C509        C  0.42120318  0.10123871  0.60319083     0.05020
C510        C  0.40925051  0.11814360  0.58581732    -0.03530
Br511      Br  0.35795574  0.10833468  0.58097117    -0.03230
H512        H  0.42386477  0.15382747  0.55635076     0.08930
H513        H  0.46896195  0.09583146  0.61548986     0.06950
Br514      Br  0.03382451  0.13602244  0.58414820    -0.03660
C515        C  0.45938543  0.40007189  0.59621778    -0.10290
C516        C  0.47556522  0.37638526  0.59756000     0.05900
C517        C  0.47294301  0.35400316  0.57830264    -0.04060
C518        C  0.45227889  0.35376432  0.55855269    -0.08510
C519        C  0.43456556  0.37608454  0.55763968     0.05020
C520        C  0.43883559  0.39995541  0.57646307    -0.03530
Br521      Br  0.41258715  0.42849707  0.57720250    -0.03230
H522        H  0.46013559  0.41641216  0.61132893     0.08930
H523        H  0.44803701  0.33428657  0.54450582     0.06950
Br524      Br  0.99411013  0.32089837  0.57925184    -0.03660
C525        C  0.14164064  0.42962194  0.64320029    -0.10290
C526        C  0.12635857  0.39679686  0.65759081     0.05900
C527        C  0.15212605  0.39124106  0.67132938    -0.04060
C528        C  0.19066474  0.42030598  0.67277843    -0.08510
C529        C  0.20459077  0.45535757  0.66063776     0.05020
C530        C  0.17943663  0.45906343  0.64518090    -0.03530
Br531      Br  0.19316894  0.00470768  0.62768721    -0.03230
H532        H  0.12291917  0.43441144  0.63183305     0.08930
H533        H  0.20970738  0.41547874  0.68378451     0.06950
Br534      Br  0.13598506  0.34588833  0.68946740    -0.03660
C535        C  0.40106412  0.16406562  0.68864054    -0.10290
C536        C  0.37429213  0.14797193  0.67027069     0.05900
C537        C  0.37681270  0.17236339  0.65196062    -0.04060
C538        C  0.40730929  0.21021922  0.65113406    -0.08510
C539        C  0.43592534  0.22554346  0.66864697     0.05020
C540        C  0.43136031  0.20191728  0.68806572    -0.03530
Br541      Br  0.46538443  0.21832930  0.71443126    -0.03230
H542        H  0.40007626  0.14594835  0.70290252     0.08930
H543        H  0.40844790  0.22779734  0.63653651     0.06950
Br544      Br  0.34017096  0.15505676  0.62715477    -0.03660
C545        C  0.39557894  0.39502550  0.66490537    -0.10290
C546        C  0.43380675  0.41494267  0.67161988     0.05900
C547        C  0.45232198  0.45413396  0.67610844    -0.04060
C548        C  0.43285834  0.47342692  0.67231285    -0.08510
C549        C  0.39485892  0.45404488  0.66456852     0.05020
C550        C  0.37575618  0.41413331  0.66127449    -0.03530
Br551      Br  0.32343277  0.38293423  0.65183837    -0.03230
H552        H  0.38153459  0.36469290  0.66136482     0.08930
H553        H  0.44771750  0.00381126  0.67567432     0.06950
Br554      Br  0.00363435  0.48295230  0.68771581    -0.03660
C555        C  0.06607536  0.46988762  0.73454076    -0.10290
C556        C  0.08029750  0.44780399  0.72465549     0.05900
C557        C  0.11550803  0.45283027  0.73278954    -0.04060
C558        C  0.13430346  0.47729056  0.75133663    -0.08510
C559        C  0.11844792  0.49664459  0.76251268     0.05020
C560        C  0.08465857  0.49389283  0.75355445    -0.03530
Br561      Br  0.06004504  0.51787122  0.76872893    -0.03230
H562        H  0.03902969  0.46631190  0.72867163     0.08930
H563        H  0.15987131  0.47864978  0.75841352     0.06950
Br564      Br  0.13904771  0.42603032  0.72041403    -0.03660
C565        C  0.37908254  0.39075896  0.91159468    -0.10290
C566        C  0.35569032  0.35684174  0.89934806     0.05900
C567        C  0.35050608  0.32224228  0.90856903    -0.04060
C568        C  0.37172205  0.32248779  0.92782627    -0.08510
C569        C  0.39847263  0.35661328  0.93864800     0.05020
C570        C  0.40029437  0.39088618  0.93124500    -0.03530
Br571      Br  0.43367632  0.43902167  0.94548332    -0.03230
H572        H  0.38355227  0.41764624  0.90469415     0.08930
H573        H  0.36847129  0.29559226  0.93367273     0.06950
Br574      Br  0.31721529  0.27366210  0.89439882    -0.03660
C575        C  0.28203448  0.21387288  0.83344260    -0.10290
C576        C  0.26164872  0.22772329  0.82018969     0.05900
C577        C  0.23428117  0.20247103  0.80417013    -0.04060
C578        C  0.22528845  0.16417336  0.80355210    -0.08510
C579        C  0.24188852  0.14923724  0.81921234     0.05020
C580        C  0.27264375  0.17535806  0.83296456    -0.03530
Br581      Br  0.30023736  0.15960437  0.85317586    -0.03230
H582        H  0.30508848  0.23288791  0.84484346     0.08930
H583        H  0.20220413  0.14496728  0.79218205     0.06950
Br584      Br  0.20585317  0.21719262  0.78391603    -0.03660
C585        C  0.01315704  0.41798087  0.83609631    -0.10290
C586        C  0.03060272  0.45782075  0.83642303     0.05900
C587        C  0.00891796  0.47603954  0.83392446    -0.04060
C588        C  0.47051990  0.45413355  0.82975926    -0.08510
C589        C  0.45301677  0.41436109  0.82941912     0.05020
C590        C  0.47432236  0.39594783  0.83275852    -0.03530
Br591      Br  0.45267833  0.34157220  0.83433713    -0.03230
H592        H  0.02979891  0.40384741  0.83796593     0.08930
H593        H  0.45396265  0.46833076  0.82756791     0.06950
Br594      Br  0.02872697  0.03008589  0.83706477    -0.03660
C595        C  0.20738207  0.42963219  0.81745762    -0.10290
C596        C  0.22437067  0.46124438  0.83290743     0.05900
C597        C  0.25068342  0.46199858  0.84943342    -0.04060
C598        C  0.25949352  0.43254493  0.85001820    -0.08510
C599        C  0.24461869  0.40234033  0.83358363     0.05020
C600        C  0.21733443  0.40075815  0.81757591    -0.03530
Br601      Br  0.19393569  0.36097335  0.79484789    -0.03230
H602        H  0.18614921  0.42724276  0.80494127     0.08930
H603        H  0.28069512  0.43496001  0.86259424     0.06950
Br604      Br  0.27802912  0.00347968  0.87079575    -0.03660
C605        C  0.40009431  0.31583744  0.76995429    -0.10290
C606        C  0.36867374  0.31904598  0.76194739     0.05900
C607        C  0.36387834  0.32102344  0.73777928    -0.04060
C608        C  0.38950668  0.31888639  0.72239136    -0.08510
C609        C  0.42123895  0.31626827  0.73044047     0.05020
C610        C  0.42644018  0.31504073  0.75458936    -0.03530
Br611      Br  0.46793652  0.31073497  0.76760346    -0.03230
H612        H  0.40465727  0.31448155  0.78844219     0.08930
H613        H  0.38479098  0.31997258  0.70389823     0.06950
Br614      Br  0.32259439  0.32558270  0.72462600    -0.03660
C615        C  0.32155987  0.46720074  0.76947590    -0.10290
C616        C  0.34863853  0.45554709  0.77299408     0.05900
C617        C  0.37958843  0.46852338  0.75766001    -0.04060
C618        C  0.38159645  0.49070317  0.73827124    -0.08510
C619        C  0.35285507  0.49983191  0.73378784     0.05020
C620        C  0.32347659  0.98911628  0.75002992    -0.03530
Br621      Br  0.28351682  0.00080382  0.74499122    -0.03230
H622        H  0.29751777  0.45722213  0.78112884     0.08930
H623        H  0.40358559  0.49756651  0.72543590     0.06950
Br624      Br  0.41611650  0.45158012  0.76041677    -0.03660
O625        O  0.33516896  0.88040198  0.86677968    -0.82930
C626        C  0.34287837  0.82079174  0.77971493     0.96420
O627        O  0.34020244  0.80462107  0.79890182    -0.72050
O628        O  0.39419296  0.86104352  0.82063229    -0.75640
Al629      Al  0.34471626  0.82578308  0.82906509     1.48980
C630        C  0.41225058  0.89386161  0.82909058     0.91670
O631        O  0.36192293  0.92988639  0.80707746    -0.81860
O632        O  0.25641838  0.85097852  0.81913556    -0.75420
Al633      Al  0.34680235  0.90192883  0.83581752     1.90120
O634        O  0.30965429  0.89356449  0.78721067    -0.74490
O635        O  0.26719206  0.78760515  0.80606202    -0.74340
O636        O  0.32573604  0.83956528  0.77686868    -0.80000
O637        O  0.29642388  0.78789221  0.83811138    -0.78200
O638        O  0.32736821  0.85712672  0.82164086    -1.14340
O639        O  0.35467361  0.83959431  0.86064909    -0.73530
C640        C  0.34683768  0.85861632  0.87448246     0.97180
C641        C  0.34004228  0.92488565  0.78999469     0.93580
Al642      Al  0.29199530  0.84346770  0.79928611     1.55560
O643        O  0.39578586  0.90979294  0.83826074    -0.78150
C644        C  0.27349646  0.76929986  0.82208745     0.97750
C645        C  0.26754787  0.88282169  0.82972018     0.92630
O646        O  0.30179490  0.90293784  0.83573147    -0.83470
O647        O  0.01796773  0.88718742  0.62932214    -0.82930
C648        C  0.44821817  0.81637654  0.71287184     0.96420
O649        O  0.43483972  0.80151199  0.69335243    -0.72050
O650        O  0.43889456  0.86074489  0.67483726    -0.75640
Al651      Al  0.45228553  0.82615196  0.66400619     1.48980
C652        C  0.45487282  0.89543382  0.66983243     0.91670
O653        O  0.04025298  0.92584494  0.69114931    -0.81860
O654        O  0.06357990  0.84642613  0.67254798    -0.75420
Al655      Al  0.02737274  0.90274321  0.66116979     1.90120
O656        O  0.05538836  0.88647789  0.70768959    -0.74490
O657        O  0.48954412  0.78401293  0.68419470    -0.74340
O658        O  0.48399967  0.83338768  0.71615887    -0.80000
O659        O  0.46127450  0.78786073  0.65270334    -0.78200
O660        O  0.00085144  0.85576276  0.67242649    -1.14340
O661        O  0.45749041  0.84511404  0.63322503    -0.73530
C662        C  0.48484598  0.86827957  0.62087770     0.97180
C663        C  0.05742092  0.91859878  0.70694905     0.93580
Al664      Al  0.02144219  0.83836539  0.69331542     1.55560
O665        O  0.48745764  0.91286744  0.66112943    -0.78150
C666        C  0.46532620  0.76747036  0.66780573     0.97750
C667        C  0.08472982  0.87906855  0.66299462     0.92630
O668        O  0.07206814  0.90141467  0.65949390    -0.83470
O669        O  0.36769361  0.54071392  0.70059127    -0.82930
C670        C  0.29535060  0.96858796  0.61645410     0.96420
O671        O  0.28267656  0.95414603  0.63619568    -0.72050
O672        O  0.34167869  0.96022979  0.65633663    -0.75640
Al673      Al  0.30620205  0.97293305  0.66611591     1.48980
C674        C  0.37563505  0.97593948  0.66276107     0.91670
O675        O  0.40455515  0.56205176  0.63780317    -0.81860
O676        O  0.32406496  0.58339972  0.65795151    -0.75420
Al677      Al  0.38236768  0.54953732  0.66848542     1.90120
O678        O  0.36276251  0.57510119  0.62297450    -0.74490
O679        O  0.26258548  0.50899046  0.64601642    -0.74340
O680        O  0.31117480  0.50441890  0.61407354    -0.80000
O681        O  0.26650951  0.97981772  0.67685469    -0.78200
O682        O  0.33484336  0.52163822  0.65768981    -1.14340
O683        O  0.32443368  0.98018748  0.69725347    -0.73530
C684        C  0.34747040  0.50808570  0.70949975     0.97180
C685        C  0.39498739  0.57788303  0.62220043     0.93580
Al686      Al  0.31613085  0.54128560  0.63718573     1.55560
O687        O  0.39305706  0.51004369  0.66926514    -0.78150
C688        C  0.24626096  0.98426174  0.66193203     0.97750
C689        C  0.35734601  0.60603690  0.66643383     0.92630
O690        O  0.38075765  0.59462925  0.66987440    -0.83470
O691        O  0.37229002  0.86768897  0.46062940    -0.82930
C692        C  0.30091009  0.86961536  0.54449759     0.96420
O693        O  0.28916289  0.87112639  0.52439686    -0.72050
O694        O  0.34857724  0.92509752  0.50545284    -0.75640
Al695      Al  0.31340503  0.87632999  0.49521861     1.48980
C696        C  0.38290857  0.94249691  0.49974661     0.91670
O697        O  0.41372243  0.89107666  0.52228840    -0.81860
O698        O  0.33874183  0.78675574  0.50626000    -0.75420
Al699      Al  0.38966827  0.87782256  0.49224388     1.89760
O700        O  0.37460027  0.83812758  0.54058454    -0.74490
O701        O  0.27242309  0.79551075  0.51501851    -0.74340
O702        O  0.31800437  0.85096526  0.54787226    -0.80000
O703        O  0.27525243  0.82903028  0.48446998    -0.78200
O704        O  0.34312061  0.85757503  0.50407814    -1.14340
O705        O  0.33089174  0.88725677  0.46395562    -0.73530
C706        C  0.35188396  0.87984486  0.45153973     0.97180
C707        C  0.40625205  0.86844853  0.53922000     0.93580
Al708      Al  0.32664347  0.82033049  0.52540002     1.55560
O709        O  0.39870898  0.92662516  0.49006025    -0.78150
C710        C  0.25552597  0.80343469  0.49881163     0.97750
C711        C  0.37242219  0.79997719  0.49787898     0.92630
O712        O  0.39112188  0.83400619  0.49228249    -0.83470
O713        O  0.01727536  0.65765901  0.53726092    -0.82930
C714        C  0.45075567  0.64982252  0.45323057     0.96420
O715        O  0.44521724  0.63170842  0.47209183    -0.72050
O716        O  0.46164427  0.61078282  0.51116275    -0.75640
Al717      Al  0.46117007  0.65433808  0.50153803     1.48980
C718        C  0.48071959  0.59734613  0.50264468     0.91670
O719        O  0.07309561  0.67754015  0.47879669    -0.81860
O720        O  0.07355909  0.74918380  0.48455891    -0.75420
Al721      Al  0.04215354  0.66944535  0.50645516     1.90120
O722        O  0.04298522  0.69239072  0.45254094    -0.74490
O723        O  0.49925772  0.74202343  0.48673241    -0.74340
O724        O  0.47541719  0.68528146  0.45199638    -0.80000
O725        O  0.44664916  0.68961200  0.49411402    -0.78200
O726        O  0.00878157  0.67992425  0.49270126    -1.14340
O727        O  0.47576907  0.67650257  0.53121004    -0.73530
C728        C  0.49124023  0.66362931  0.54492145     0.97180
C729        C  0.06606846  0.68114460  0.45768922     0.93580
Al730      Al  0.02204228  0.71516354  0.47090033     1.55560
O731        O  0.51489846  0.61812097  0.49693809    -0.78150
C732        C  0.46350104  0.72456876  0.49088613     0.97750
C733        C  0.09065612  0.74496391  0.50226340     0.92630
O734        O  0.07158287  0.71940983  0.51674597    -0.83470
O735        O  0.33657116  0.99021195  0.29255537    -0.82930
C736        C  0.34712031  0.55611213  0.38092264     0.96420
O737        O  0.34708909  0.57181949  0.36197140    -0.72050
O738        O  0.39950684  0.56748936  0.33866101    -0.75640
Al739      Al  0.34943776  0.55511105  0.33116821     1.48980
C740        C  0.41611103  0.55214101  0.32889656     0.91670
O741        O  0.36307646  0.96523408  0.35196843    -0.81860
O742        O  0.25840267  0.94314205  0.33990792    -0.75420
Al743      Al  0.34806511  0.97906563  0.32338574     1.90120
O744        O  0.31136322  0.95073023  0.37157794    -0.74490
O745        O  0.27183870  0.51721903  0.35392545    -0.74340
O746        O  0.32916283  0.52022309  0.38262366    -0.80000
O747        O  0.30169637  0.54781717  0.32268979    -0.78200
O748        O  0.33042774  0.50586004  0.33790136    -1.14340
O749        O  0.35758365  0.55075151  0.29944905    -0.73530
C750        C  0.35094732  0.52430224  0.28546996     0.97180
C751        C  0.34125499  0.94880402  0.36893946     0.93580
Al752      Al  0.29509248  0.98463664  0.35999204     1.55560
O753        O  0.39796687  0.51890627  0.32090006    -0.78150
C754        C  0.27846412  0.54263058  0.33851880     0.97750
C755        C  0.26795868  0.92104400  0.32968095     0.92630
O756        O  0.30174888  0.93347231  0.32329215    -0.83470
O757        O  0.14352168  0.64365326  0.36661200    -0.82930
C758        C  0.15384095  0.71070201  0.27906023     0.96420
O759        O  0.15243137  0.72517889  0.29803587    -0.72050
O760        O  0.09394771  0.66398387  0.31320216    -0.75640
Al761      Al  0.13981067  0.69970880  0.32727451     1.48980
C762        C  0.07476220  0.62980071  0.31953643     0.91670
O763        O  0.13193629  0.59890281  0.30622558    -0.81860
O764        O  0.23201922  0.67908707  0.32683018    -0.75420
Al765      Al  0.13943583  0.62454494  0.33533625     1.90120
O766        O  0.18663875  0.63816570  0.29024931    -0.74490
O767        O  0.22220247  0.74180674  0.31300554    -0.74340
O768        O  0.17175700  0.69253856  0.27828983    -0.80000
O769        O  0.18452423  0.73808851  0.34126093    -0.78200
O770        O  0.16052265  0.67045639  0.32246073    -1.14340
O771        O  0.12112145  0.68136038  0.35759233    -0.73530
C772        C  0.12715581  0.66197062  0.37245820     0.97180
C773        C  0.15681984  0.60575576  0.29099594     0.93580
Al774      Al  0.20051709  0.68713309  0.30375035     1.55560
O775        O  0.08915297  0.61445176  0.33198942    -0.78150
C776        C  0.21219506  0.75829717  0.32815010     0.97750
C777        C  0.22010407  0.64690857  0.33704344     0.92630
O778        O  0.18507751  0.62526503  0.34027500    -0.83470
O779        O  0.47079792  0.63402748  0.12500224    -0.82930
C780        C  0.04887215  0.69977106  0.20564306     0.96420
O781        O  0.05150451  0.68532147  0.18686654    -0.72050
O782        O  0.02988411  0.64228939  0.15044159    -0.75640
Al783      Al  0.03181116  0.68867659  0.15801979     1.48980
C784        C  0.00875813  0.60954732  0.15865683     0.91670
O785        O  0.42046694  0.60312648  0.18475867    -0.81860
O786        O  0.42039654  0.67205167  0.18031152    -0.75420
Al787      Al  0.44923607  0.62401007  0.15634364     1.90120
O788        O  0.45513733  0.64628228  0.21075487    -0.74490
O789        O  0.49405878  0.73907487  0.17500266    -0.74340
O790        O  0.02272651  0.70833599  0.20800578    -0.80000
O791        O  0.04603297  0.73992508  0.16357945    -0.78200
O792        O  0.48488948  0.66776283  0.16875030    -1.14340
O793        O  0.01557332  0.69361365  0.12815480    -0.73530
C794        C  0.49664428  0.66439041  0.11573072     0.97180
C795        C  0.42956611  0.61276843  0.20578818     0.93580
Al796      Al  0.47384797  0.69009529  0.19148558     1.55560
O797        O  0.47541312  0.59871472  0.16513837    -0.78150
C798        C  0.02877100  0.75746989  0.16848225     0.97750
C799        C  0.40193007  0.65170121  0.16267216     0.92630
O800        O  0.42009470  0.64601950  0.14703831    -0.83470
O801        O  0.12167413  0.98356294  0.20283459    -0.82930
C802        C  0.18722939  0.56461253  0.11856054     0.96420
O803        O  0.19633623  0.57696569  0.13887196    -0.72050
O804        O  0.13342256  0.56207999  0.15805134    -0.75640
Al805      Al  0.17345858  0.55434179  0.16739776     1.48980
C806        C  0.09968675  0.54261895  0.16486239     0.91670
O807        O  0.07586833  0.96113730  0.14174399    -0.81860
O808        O  0.15934045  0.94393304  0.15292063    -0.75420
Al809      Al  0.10210385  0.97422008  0.17122354     1.90120
O810        O  0.11951354  0.95920395  0.12021814    -0.74490
O811        O  0.22018323  0.52027092  0.14706064    -0.74340
O812        O  0.17327912  0.52948443  0.11468575    -0.80000
O813        O  0.21666644  0.55176291  0.17706978    -0.78200
O814        O  0.14775457  0.50548939  0.15838284    -1.14340
O815        O  0.15705057  0.54538055  0.19839267    -0.73530
C816        C  0.13950640  0.51686004  0.21135438     0.97180
C817        C  0.08593323  0.95290024  0.12287303     0.93580
Al818      Al  0.16689473  0.98955732  0.13594101     1.55560
O819        O  0.08722187  0.51068789  0.17426437    -0.78150
C820        C  0.23654102  0.54475554  0.16332548     0.97750
C821        C  0.12794996  0.92006701  0.16251978     0.92630
O822        O  0.10590597  0.93056372  0.17025849    -0.83470
O823        O  0.12258758  0.66671510  0.96210317    -0.82930
C824        C  0.19292643  0.67062085  0.04742851     0.96420
O825        O  0.20710362  0.66997262  0.02811062    -0.72050
O826        O  0.14771117  0.61425653  0.00989014    -0.75640
Al827      Al  0.18269483  0.66190061  0.99834662     1.48980
C828        C  0.11360698  0.59568808  0.00358324     0.91670
O829        O  0.08334262  0.65267247  0.02359697    -0.81860
O830        O  0.16325967  0.75426918  0.00329366    -0.75420
Al831      Al  0.10666307  0.66158916  0.99376455     1.90120
O832        O  0.12326886  0.70766492  0.03908170    -0.74490
O833        O  0.22589971  0.74249252  0.01639975    -0.74340
O834        O  0.17624294  0.68991609  0.04925691    -0.80000
O835        O  0.22105936  0.70805857  0.98621091    -0.78200
O836        O  0.15354172  0.68192791  0.00541036    -1.14340
O837        O  0.16433248  0.64784380  0.96742745    -0.73530
C838        C  0.14240863  0.65320051  0.95427102     0.97180
C839        C  0.09076723  0.67812736  0.03859036     0.93580
Al840      Al  0.17133272  0.72097632  0.02524216     1.55560
O841        O  0.09657780  0.61153589  0.99472482    -0.78150
C842        C  0.24190330  0.73331533  0.00058547     0.97750
C843        C  0.13039669  0.74281836  0.99384427     0.92630
O844        O  0.10790267  0.70778800  0.99086341    -0.83470
O845        O  0.47030496  0.86091093  0.03314733    -0.82930
C846        C  0.03811059  0.86728318  0.94612684     0.96420
O847        O  0.05274763  0.86718742  0.96546071    -0.72050
O848        O  0.04409754  0.91961052  0.98503221    -0.75640
Al849      Al  0.03525219  0.87214597  0.99521507     1.48980
C850        C  0.02794639  0.93653275  0.99334768     0.91670
O851        O  0.44021182  0.87771988  0.97239911    -0.81860
O852        O  0.42537597  0.77725255  0.98737143    -0.75420
Al853      Al  0.45732139  0.86755125  0.00160471     1.90120
O854        O  0.43112282  0.82672128  0.95398321    -0.74490
O855        O  0.50063259  0.79321544  0.97510268    -0.74340
O856        O  0.00223510  0.84793791  0.94374850    -0.80000
O857        O  0.03105443  0.82627974  0.00584520    -0.78200
O858        O  0.48577055  0.85049893  0.98829592    -1.14340
O859        O  0.03085695  0.88385239  0.02616500    -0.73530
C860        C  0.50460655  0.87779049  0.04005103     0.97180
C861        C  0.42494408  0.85419642  0.95592816     0.93580
Al862      Al  0.46648382  0.81378952  0.96695165     1.55560
O863        O  0.49539361  0.91855609  0.00207198    -0.78150
C864        C  0.02599765  0.80148556  0.99091923     0.97750
C865        C  0.40292767  0.78612752  0.99782136     0.92630
O866        O  0.41402615  0.82007504  0.00334390    -0.83470
O867        O  0.14260499  0.54036316  0.79448610    -0.82930
C868        C  0.14598304  0.97521380  0.88003586     0.96420
O869        O  0.14592293  0.96008417  0.86095377    -0.72050
O870        O  0.09017177  0.96402238  0.84249319    -0.75640
Al871      Al  0.13746910  0.97593350  0.83115941     1.48980
C872        C  0.07140652  0.97929667  0.83577417     0.91670
O873        O  0.12718098  0.56536612  0.85598427    -0.81860
O874        O  0.22905633  0.58701103  0.83571290    -0.75420
Al875      Al  0.13676372  0.55136916  0.82605539     1.90120
O876        O  0.18280315  0.58178304  0.87151560    -0.74490
O877        O  0.21790204  0.51364615  0.84931766    -0.74340
O878        O  0.16487574  0.51116107  0.88210963    -0.80000
O879        O  0.18341522  0.98320828  0.81911840    -0.78200
O880        O  0.15729127  0.52510830  0.83799678    -1.14340
O881        O  0.12345019  0.97983188  0.80036508    -0.73530
C882        C  0.12940096  0.50683429  0.78691271     0.97180
C883        C  0.15228958  0.58312321  0.87134545     0.93580
Al884      Al  0.19617029  0.54665857  0.85795566     1.55560
O885        O  0.08698501  0.51144256  0.82632432    -0.78150
C886        C  0.20954793  0.98888674  0.83323389     0.97750
C887        C  0.21756295  0.60822410  0.82599040     0.92630
O888        O  0.18256329  0.59631787  0.82347202    -0.83470
C889        C  0.10213502  0.89981393  0.92732243    -0.10290
C890        C  0.06416598  0.89245304  0.92750450     0.05900
C891        C  0.05450128  0.91443761  0.91272874    -0.04060
C892        C  0.08241509  0.94296215  0.89858728    -0.08510
C893        C  0.12013586  0.95006006  0.89845747     0.05020
C894        C  0.12971676  0.92781501  0.91276350    -0.03530
Br895      Br  0.18027335  0.93512090  0.91296535    -0.03230
H896        H  0.11053843  0.88385287  0.93874148     0.08930
H897        H  0.07439806  0.95938888  0.88732708     0.06950
Br898      Br  0.50439638  0.90848307  0.91182920    -0.03660
C899        C  0.11193271  0.58902372  0.90187827    -0.10290
C900        C  0.14635361  0.60542361  0.88957437     0.05900
C901        C  0.17608886  0.64157411  0.89654907    -0.04060
C902        C  0.17256282  0.65896979  0.91654167    -0.08510
C903        C  0.13954960  0.64117473  0.92990608     0.05020
C904        C  0.10849422  0.60646865  0.92209685    -0.03530
Br905      Br  0.06288879  0.57945919  0.94006451    -0.03230
H906        H  0.08872316  0.56133010  0.89677819     0.08930
H907        H  0.19668695  0.68546762  0.92250844     0.06950
Br908      Br  0.22270180  0.66860277  0.87996086    -0.03660
C909        C  0.08939354  0.80814253  0.00264295    -0.10290
C910        C  0.05472534  0.78810361  0.98985805     0.05900
C911        C  0.05136635  0.75968544  0.97431991    -0.04060
C912        C  0.08017622  0.75008623  0.97331312    -0.08510
C913        C  0.11269496  0.76694615  0.98807171     0.05020
C914        C  0.11826430  0.79822081  0.00161914    -0.03530
Br915      Br  0.16420918  0.82783754  0.01926441    -0.03230
H916        H  0.09430638  0.83188321  0.01361498     0.08930
H917        H  0.07541305  0.72664154  0.96207945     0.06950
Br918      Br  0.00732971  0.73061137  0.95493330    -0.03660
C919        C  0.34508223  0.76834047  0.02091486    -0.10290
C920        C  0.36113517  0.76041774  0.00144916     0.05900
C921        C  0.33671879  0.74150207  0.98249551    -0.04060
C922        C  0.29897074  0.73466198  0.98227402    -0.08510
C923        C  0.28379320  0.74553190  0.00098235     0.05020
C924        C  0.30733906  0.76128451  0.02089344    -0.03530
Br925      Br  0.29059223  0.77426583  0.04882605    -0.03230
H926        H  0.36318037  0.78307270  0.03573013     0.08930
H927        H  0.28136922  0.72066795  0.96717177     0.06950
Br928      Br  0.35398770  0.72590576  0.95597150    -0.03660
C929        C  0.08904887  0.99516881  0.99523605    -0.10290
C930        C  0.04919796  0.97749789  0.99570852     0.05900
C931        C  0.03133257  0.99860587  0.00156871    -0.04060
C932        C  0.05365882  0.53691935  0.00626832    -0.08510
C933        C  0.09330528  0.55478054  0.00470392     0.05020
C934        C  0.11133342  0.53362165  0.99978090    -0.03530
Br935      Br  0.16556454  0.55503928  0.99735667    -0.03230
H936        H  0.10315354  0.97900824  0.99152501     0.08930
H937        H  0.03983209  0.55332856  0.01011432     0.06950
Br938      Br  0.47714780  0.97856680  0.00260883    -0.03660
C939        C  0.20860529  0.62148892  0.06200607    -0.10290
C940        C  0.19410027  0.64617845  0.06679726     0.05900
C941        C  0.17780430  0.64341699  0.08892946    -0.04060
C942        C  0.17661999  0.61701129  0.10530109    -0.08510
C943        C  0.19033984  0.59202862  0.10020861     0.05020
C944        C  0.20652398  0.59451190  0.07830426    -0.03530
Br945      Br  0.22721160  0.56261908  0.07013416    -0.03230
H946        H  0.22096712  0.62239332  0.04519955     0.08930
H947        H  0.16387053  0.61533052  0.12209820     0.06950
Br948      Br  0.15539729  0.67345645  0.09814777    -0.03660
C949        C  0.04758363  0.93517659  0.06154838    -0.10290
C950        C  0.01721684  0.89760775  0.06272427     0.05900
C951        C  0.00517091  0.88035741  0.08469899    -0.04060
C952        C  0.02613224  0.89978390  0.10483308    -0.08510
C953        C  0.05900455  0.93612602  0.10305914     0.05020
C954        C  0.06872272  0.95406275  0.08113917    -0.03530
Br955      Br  0.11202118  0.00347821  0.07600296    -0.03230
H956        H  0.05662936  0.94929460  0.04480946     0.08930
H957        H  0.01823625  0.88557628  0.12157135     0.06950
Br958      Br  0.46262031  0.82986718  0.08755441    -0.03660
C959        C  0.03294750  0.63737040  0.06263500    -0.10290
C960        C  0.06127848  0.67387568  0.05550148     0.05900
C961        C  0.06094901  0.70587750  0.06494983    -0.04060
C962        C  0.03544095  0.70124881  0.08244958    -0.08510
C963        C  0.01038037  0.66524766  0.09170208     0.05020
C964        C  0.00756271  0.63275116  0.08058743    -0.03530
Br965      Br  0.97162276  0.58153607  0.08970742    -0.03230
H966        H  0.03168968  0.61230675  0.05503342     0.08930
H967        H  0.03732254  0.72655701  0.09013933     0.06950
Br968      Br  0.09485747  0.75729518  0.05569452    -0.03660
C969        C  0.29479737  0.60507051  0.17682340    -0.10290
C970        C  0.27930274  0.56998434  0.16462762     0.05900
C971        C  0.30476321  0.56314222  0.15171960    -0.04060
C972        C  0.34356555  0.59095558  0.15063420    -0.08510
C973        C  0.35909766  0.62618193  0.16261708     0.05020
C974        C  0.33390907  0.63268142  0.17603205    -0.03530
Br975      Br  0.35075124  0.67949662  0.19256558    -0.03230
H976        H  0.27618312  0.61180273  0.18663424     0.08930
H977        H  0.36198533  0.58412682  0.14070713     0.06950
Br978      Br  0.28915167  0.01579934  0.13596538    -0.03660
C979        C  0.08066337  0.81872708  0.18463521    -0.10290
C980        C  0.05230123  0.79986226  0.16742191     0.05900
C981        C  0.05460973  0.81999071  0.14689203    -0.04060
C982        C  0.08330847  0.85840819  0.14436585    -0.08510
C983        C  0.11086242  0.87785855  0.16195468     0.05020
C984        C  0.10916219  0.85730502  0.18220712    -0.03530
Br985      Br  0.14493730  0.88142690  0.20713180    -0.03230
H986        H  0.08083535  0.80319903  0.20002416     0.08930
H987        H  0.08278574  0.87387669  0.12903641     0.06950
Br988      Br  0.51906213  0.79573672  0.12186401    -0.03660
C989        C  0.06462832  0.56866498  0.18345988    -0.10290
C990        C  0.07439315  0.55741064  0.16299755     0.05900
C991        C  0.05776461  0.55781005  0.14160452    -0.04060
C992        C  0.03311249  0.57216967  0.14068972    -0.08510
C993        C  0.02461029  0.58509280  0.16101300     0.05020
C994        C  0.03971370  0.58261291  0.18258895    -0.03530
Br995      Br  0.03040776  0.60120874  0.21081120    -0.03230
H996        H  0.07726407  0.56755961  0.20001068     0.08930
H997        H  0.02192622  0.57486604  0.12397141     0.06950
Br998      Br  0.06785318  0.53925017  0.11354410    -0.03660
C999        C  0.10759080  0.69954760  0.21918212    -0.10290
C1000       C  0.07752153  0.70656843  0.22434123     0.05900
C1001       C  0.07565606  0.71855073  0.24708961    -0.04060
C1002       C  0.10212503  0.72146374  0.26398681    -0.08510
C1003       C  0.13093903  0.71253719  0.25910623     0.05020
C1004       C  0.13390237  0.70225212  0.23615846    -0.03530
Br1005     Br  0.17304935  0.69170236  0.22660185    -0.03230
H1006       H  0.11047135  0.69109404  0.20178931     0.08930
H1007       H  0.09899564  0.72943435  0.28146470     0.06950
Br1008     Br  0.03727592  0.73004393  0.25701152    -0.03660
C1009       C  0.11415412  0.55088016  0.26499048    -0.10290
C1010       C  0.15095545  0.57577244  0.27374097     0.05900
C1011       C  0.18167702  0.57246433  0.26492355    -0.04060
C1012       C  0.17585285  0.54738984  0.24663919    -0.08510
C1013       C  0.13989500  0.52551403  0.23630889     0.05020
C1014       C  0.10854664  0.52623095  0.24627325    -0.03530
Br1015     Br  0.05853665  0.49805294  0.23283979    -0.03230
H1016       H  0.09001891  0.55251955  0.27156282     0.08930
H1017       H  0.20036218  0.54771789  0.23891149     0.06950
Br1018     Br  0.23283622  0.60229674  0.27607934    -0.03660
C1019       C  0.40892537  0.56093004  0.26364122    -0.10290
C1020       C  0.36935380  0.53690671  0.26260639     0.05900
C1021       C  0.34987116  0.53513109  0.24186759    -0.04060
C1022       C  0.37023268  0.55838575  0.22283820    -0.08510
C1023       C  0.40958693  0.58497357  0.22478696     0.05020
C1024       C  0.42879679  0.58569781  0.24556517    -0.03530
Br1025     Br  0.48145533  0.62143010  0.25176624    -0.03230
H1026       H  0.42415825  0.56298143  0.27960406     0.08930
H1027       H  0.35486091  0.55752128  0.20711469     0.06950
Br1028     Br  0.29561520  0.00415217  0.23971479    -0.03660
C1029       C  0.21819504  0.81711213  0.34713732    -0.10290
C1030       C  0.22673042  0.80066389  0.32805864     0.05900
C1031       C  0.24207685  0.82361086  0.30797413    -0.04060
C1032       C  0.25006481  0.86167841  0.30784356    -0.08510
C1033       C  0.24352908  0.87870420  0.32735727     0.05020
C1034       C  0.22632342  0.85532643  0.34693642    -0.03530
Br1035     Br  0.21564791  0.87465973  0.37457242    -0.03230
H1036       H  0.20514656  0.80012804  0.36253348     0.08930
H1037       H  0.26387825  0.87905663  0.29268753     0.06950
Br1038     Br  0.25269671  0.80536030  0.27978504    -0.03660
C1039       C  0.22713000  0.59632532  0.35742548    -0.10290
C1040       C  0.24390969  0.62898281  0.34286706     0.05900
C1041       C  0.27516799  0.63482203  0.32933709    -0.04060
C1042       C  0.28522933  0.60618240  0.32815922    -0.08510
C1043       C  0.26533842  0.57138039  0.34064900     0.05020
C1044       C  0.23709251  0.56771799  0.35628489    -0.03530
Br1045     Br  0.20887072  0.52344442  0.37540683    -0.03230
H1046       H  0.20360209  0.59132878  0.36855983     0.08930
H1047       H  0.30878608  0.61126616  0.31704770     0.06950
Br1048     Br  0.30383986  0.68008084  0.31107230    -0.03660
C1049       C  0.47525789  0.55167801  0.32336736    -0.10290
C1050       C  0.45675066  0.57299414  0.32502312     0.05900
C1051       C  0.47626498  0.61211680  0.31951492    -0.04060
C1052       C  0.01488543  0.62986198  0.31473212    -0.08510
C1053       C  0.03402939  0.60903023  0.31549019     0.05020
C1054       C  0.01348998  0.56919282  0.31812716    -0.03530
Br1055     Br  0.03575019  0.53707838  0.31522638    -0.03230
H1056       H  0.45992675  0.52113772  0.32626361     0.08930
H1057       H  0.03038478  0.66045318  0.31211394     0.06950
Br1058     Br  0.45232954  0.64281656  0.31761495    -0.03660
C1059       C  0.40061487  0.63806625  0.42356649    -0.10290
C1060       C  0.42689913  0.62856296  0.43303372     0.05900
C1061       C  0.42613015  0.59512938  0.42536583    -0.04060
C1062       C  0.39842191  0.57100773  0.40941750    -0.08510
C1063       C  0.37182186  0.58007158  0.40012206     0.05020
C1064       C  0.37346353  0.61433362  0.40696644    -0.03530
Br1065     Br  0.33803910  0.62876928  0.39501855    -0.03230
H1066       H  0.40050059  0.66335620  0.42956994     0.08930
H1067       H  0.39861989  0.54572110  0.40350533     0.06950
Br1068     Br  0.46390371  0.58230656  0.43485162    -0.03660
C1069       C  0.05929787  0.65549045  0.41843356    -0.10290
C1070       C  0.08272211  0.67080229  0.43804784     0.05900
C1071       C  0.12062233  0.67792128  0.43706749    -0.04060
C1072       C  0.13485141  0.67239727  0.41591467    -0.08510
C1073       C  0.11138476  0.65918293  0.39596770     0.05020
C1074       C  0.07287460  0.64914739  0.39789409    -0.03530
Br1075     Br  0.03680051  0.62755307  0.37293848    -0.03230
H1076       H  0.03011559  0.64951776  0.41873878     0.08930
H1077       H  0.16460675  0.68042392  0.41471679     0.06950
Br1078     Br  0.15481793  0.69840786  0.46307238    -0.03660
C1079       C  0.38603257  0.92308700  0.41883884    -0.10290
C1080       C  0.35421902  0.88933600  0.42662558     0.05900
C1081       C  0.32124860  0.87201003  0.41265528    -0.04060
C1082       C  0.31883027  0.89052423  0.39266084    -0.08510
C1083       C  0.34917633  0.92623160  0.38609179     0.05020
C1084       C  0.38382801  0.94151685  0.39857181    -0.03530
Br1085     Br  0.42698511  0.98971306  0.39052976    -0.03230
H1086       H  0.41142150  0.93695791  0.42963958     0.08930
H1087       H  0.29238797  0.87791044  0.38286043     0.06950
Br1088     Br  0.27806913  0.82418028  0.42112748    -0.03660
C1089       C  0.19121388  0.76265369  0.51651804    -0.10290
C1090       C  0.21303770  0.78785089  0.49879006     0.05900
C1091       C  0.19447294  0.80212852  0.48391254    -0.04060
C1092       C  0.15539766  0.78935394  0.48619518    -0.08510
C1093       C  0.13343882  0.76355245  0.50359682     0.05020
C1094       C  0.15247405  0.75099295  0.51935243    -0.03530
Br1095     Br  0.12882041  0.71794314  0.54560369    -0.03230
H1096       H  0.20461188  0.75246999  0.52878660     0.08930
H1097       H  0.14196238  0.79956893  0.47397955     0.06950
Br1098     Br  0.21944076  0.84053407  0.46043824    -0.03660
C1099       C  0.37701298  0.74002182  0.49526918    -0.10290
C1100       C  0.39483196  0.77966225  0.49594126     0.05900
C1101       C  0.43585776  0.80078969  0.49459987    -0.04060
C1102       C  0.45694863  0.78224824  0.49281477    -0.08510
C1103       C  0.43931724  0.74287793  0.49209628     0.05020
C1104       C  0.39844046  0.72149305  0.49300801    -0.03530
Br1105     Br  0.36842540  0.66686442  0.49025978    -0.03230
H1106       H  0.34622689  0.72334097  0.49599579     0.08930
H1107       H  0.48775788  0.79898379  0.49216524     0.06950
Br1108     Br  0.46810328  0.85551913  0.49557046    -0.03660
C1109       C  0.44005943  0.99560178  0.51489853    -0.10290
C1110       C  0.40555362  0.98219473  0.50272038     0.05900
C1111       C  0.39848496  0.00590048  0.48845307    -0.04060
C1112       C  0.42601942  0.54349859  0.48686499    -0.08510
C1113       C  0.46049673  0.55737369  0.49911688     0.05020
C1114       C  0.46784946  0.53353836  0.51319855    -0.03530
Br1115     Br  0.01358097  0.55209684  0.53146082    -0.03230
H1116       H  0.44553074  0.97631511  0.52523176     0.08930
H1117       H  0.41959530  0.56230690  0.47689867     0.06950
Br1118     Br  0.35314699  0.98797255  0.46972384    -0.03660
C1119       C  0.28090333  0.90405364  0.60195927    -0.10290
C1120       C  0.29345457  0.94285478  0.59697712     0.05900
C1121       C  0.30714719  0.95612736  0.57426729    -0.04060
C1122       C  0.30831873  0.93132754  0.55771653    -0.08510
C1123       C  0.29726143  0.89324868  0.56307351     0.05020
C1124       C  0.28328685  0.87964070  0.58547978    -0.03530
Br1125     Br  0.26591903  0.82772544  0.59405896    -0.03230
H1126       H  0.26987710  0.89261479  0.61902555     0.08930
H1127       H  0.31900950  0.94237114  0.54052838     0.06950
Br1128     Br  0.32556198  0.50766021  0.56423077    -0.03660
C1129       C  0.43468549  0.64189388  0.56922462    -0.10290
C1130       C  0.47156975  0.64725164  0.56738720     0.05900
C1131       C  0.48387008  0.63030236  0.58442792    -0.04060
C1132       C  0.45896682  0.60821375  0.60240241    -0.08510
C1133       C  0.42120317  0.60123872  0.60319082     0.05020
C1134       C  0.40925051  0.61814361  0.58581731    -0.03530
Br1135     Br  0.35795574  0.60833469  0.58097116    -0.03230
H1136       H  0.42386477  0.65382749  0.55635076     0.08930
H1137       H  0.46896194  0.59583146  0.61548985     0.06950
Br1138     Br  0.03382450  0.63602244  0.58414819    -0.03660
C1139       C  0.45938539  0.90007186  0.59621779    -0.10290
C1140       C  0.47556517  0.87638522  0.59756003     0.05900
C1141       C  0.47294295  0.85400311  0.57830267    -0.04060
C1142       C  0.45227885  0.85376427  0.55855271    -0.08510
C1143       C  0.43456553  0.87608451  0.55763969     0.05020
C1144       C  0.43883556  0.89995538  0.57646308    -0.03530
Br1145     Br  0.41258714  0.92849706  0.57720251    -0.03230
H1146       H  0.46013555  0.91641213  0.61132895     0.08930
H1147       H  0.44803696  0.83428652  0.54450584     0.06950
Br1148     Br  0.99411011  0.82089836  0.57925186    -0.03660
C1149       C  0.14164064  0.92962193  0.64320029    -0.10290
C1150       C  0.12635857  0.89679685  0.65759082     0.05900
C1151       C  0.15212604  0.89124105  0.67132939    -0.04060
C1152       C  0.19066474  0.92030597  0.67277844    -0.08510
C1153       C  0.20459076  0.95535755  0.66063776     0.05020
C1154       C  0.17943662  0.95906341  0.64518090    -0.03530
Br1155     Br  0.19316894  0.50470771  0.62768722    -0.03230
H1156       H  0.12291916  0.93441142  0.63183305     0.08930
H1157       H  0.20970737  0.91547873  0.68378452     0.06950
Br1158     Br  0.13598505  0.84588832  0.68946741    -0.03660
C1159       C  0.40106412  0.66406561  0.68864054    -0.10290
C1160       C  0.37429213  0.64797193  0.67027069     0.05900
C1161       C  0.37681271  0.67236340  0.65196063    -0.04060
C1162       C  0.40730930  0.71021923  0.65113408    -0.08510
C1163       C  0.43592534  0.72554346  0.66864699     0.05020
C1164       C  0.43136031  0.70191728  0.68806574    -0.03530
Br1165     Br  0.46538442  0.71832929  0.71443128    -0.03230
H1166       H  0.40007625  0.64594834  0.70290252     0.08930
H1167       H  0.40844791  0.72779736  0.63653653     0.06950
Br1168     Br  0.34017098  0.65505678  0.62715478    -0.03660
C1169       C  0.39557895  0.89502550  0.66490540    -0.10290
C1170       C  0.43380676  0.91494268  0.67161990     0.05900
C1171       C  0.45232200  0.95413398  0.67610844    -0.04060
C1172       C  0.43285836  0.97342694  0.67231285    -0.08510
C1173       C  0.39485893  0.95404489  0.66456852     0.05020
C1174       C  0.37575619  0.91413332  0.66127451    -0.03530
Br1175     Br  0.32343277  0.88293423  0.65183840    -0.03230
H1176       H  0.38153460  0.86469290  0.66136486     0.08930
H1177       H  0.44771748  0.50381124  0.67567434     0.06950
Br1178     Br  0.00363440  0.98295234  0.68771578    -0.03660
C1179       C  0.06607537  0.96988764  0.73454075    -0.10290
C1180       C  0.08029751  0.94780402  0.72465548     0.05900
C1181       C  0.11550806  0.95283032  0.73278952    -0.04060
C1182       C  0.13430349  0.97729062  0.75133660    -0.08510
C1183       C  0.11844793  0.99664464  0.76251266     0.05020
C1184       C  0.08465858  0.99389286  0.75355443    -0.03530
Br1185     Br  0.06004504  0.01787123  0.76872891    -0.03230
H1186       H  0.03902969  0.96631190  0.72867162     0.08930
H1187       H  0.15987136  0.97864986  0.75841349     0.06950
Br1188     Br  0.13904775  0.92603038  0.72041401    -0.03660
C1189       C  0.37908277  0.89075917  0.91159465    -0.10290
C1190       C  0.35569031  0.85684190  0.89934813     0.05900
C1191       C  0.35050586  0.82224242  0.90856918    -0.04060
C1192       C  0.37172185  0.82248790  0.92782641    -0.08510
C1193       C  0.39847265  0.85661340  0.93864804     0.05020
C1194       C  0.40029464  0.89088637  0.93124494    -0.03530
Br1195     Br  0.43367701  0.93902191  0.94548308    -0.03230
H1196       H  0.38355267  0.91764647  0.90469403     0.08930
H1197       H  0.36847093  0.79559235  0.93367294     0.06950
Br1198     Br  0.31721479  0.77366223  0.89439906    -0.03660
C1199       C  0.28203447  0.71387287  0.83344265    -0.10290
C1200       C  0.26164872  0.72772329  0.82018973     0.05900
C1201       C  0.23428120  0.70247103  0.80417016    -0.04060
C1202       C  0.22528849  0.66417336  0.80355213    -0.08510
C1203       C  0.24188854  0.64923724  0.81921237     0.05020
C1204       C  0.27264375  0.67535805  0.83296460    -0.03530
Br1205     Br  0.30023735  0.65960436  0.85317591    -0.03230
H1206       H  0.30508845  0.73288789  0.84484353     0.08930
H1207       H  0.20220418  0.64496728  0.79218207     0.06950
Br1208     Br  0.20585322  0.71719263  0.78391605    -0.03660
C1209       C  0.01315704  0.91798088  0.83609636    -0.10290
C1210       C  0.03060273  0.95782076  0.83642306     0.05900
C1211       C  0.00891797  0.97603955  0.83392451    -0.04060
C1212       C  0.47051989  0.95413356  0.82975932    -0.08510
C1213       C  0.45301677  0.91436110  0.82941922     0.05020
C1214       C  0.47432236  0.89594785  0.83275861    -0.03530
Br1215     Br  0.45267833  0.84157222  0.83433727    -0.03230
H1216       H  0.02979892  0.90384742  0.83796598     0.08930
H1217       H  0.45396265  0.96833076  0.82756799     0.06950
Br1218     Br  0.02872694  0.53008587  0.83706476    -0.03660
C1219       C  0.20738211  0.92963223  0.81745759    -0.10290
C1220       C  0.22437069  0.96124439  0.83290741     0.05900
C1221       C  0.25068339  0.96199857  0.84943343    -0.04060
C1222       C  0.25949347  0.93254490  0.85001821    -0.08510
C1223       C  0.24461867  0.90234033  0.83358363     0.05020
C1224       C  0.21733445  0.90075818  0.81757588    -0.03530
Br1225     Br  0.19393577  0.86097342  0.79484784    -0.03230
H1226       H  0.18614928  0.92724283  0.80494122     0.08930
H1227       H  0.28069505  0.93495996  0.86259426     0.06950
Br1228     Br  0.27802919  0.50347972  0.87079572    -0.03660
C1229       C  0.40009440  0.81583750  0.76995436    -0.10290
C1230       C  0.36867378  0.81904598  0.76194746     0.05900
C1231       C  0.36387833  0.82102336  0.73777935    -0.04060
C1232       C  0.38950668  0.81888633  0.72239143    -0.08510
C1233       C  0.42123898  0.81626828  0.73044053     0.05020
C1234       C  0.42644026  0.81504080  0.75458942    -0.03530
Br1235     Br  0.46793667  0.81073516  0.76760351    -0.03230
H1236       H  0.40465739  0.81448167  0.78844225     0.08930
H1237       H  0.38479095  0.81997248  0.70389830     0.06950
Br1238     Br  0.32259433  0.82558253  0.72462608    -0.03660
C1239       C  0.32155988  0.96720072  0.76947591    -0.10290
C1240       C  0.34863854  0.95554707  0.77299409     0.05900
C1241       C  0.37958843  0.96852335  0.75766002    -0.04060
C1242       C  0.38159645  0.99070314  0.73827124    -0.08510
C1243       C  0.35285508  0.99983189  0.73378784     0.05020
C1244       C  0.32347658  0.48911630  0.75002991    -0.03530
Br1245     Br  0.28351680  0.50080383  0.74499119    -0.03230
H1246       H  0.29751780  0.95722212  0.78112886     0.08930
H1247       H  0.40358558  0.99756647  0.72543590     0.06950
Br1248     Br  0.41611649  0.95158008  0.76041676    -0.03660
O1249       O  0.83516899  0.38040190  0.86677964    -0.82930
C1250       C  0.84287832  0.32079174  0.77971485     0.96420
O1251       O  0.84020238  0.30462105  0.79890174    -0.72050
O1252       O  0.89419297  0.36104353  0.82063216    -0.75640
Al1253     Al  0.84471628  0.32578308  0.82906500     1.48980
C1254       C  0.91225059  0.39386160  0.82909047     0.91670
O1255       O  0.86192292  0.42988640  0.80707744    -0.81860
O1256       O  0.75641839  0.35097853  0.81913554    -0.75420
Al1257     Al  0.84680235  0.40192881  0.83581749     1.90120
O1258       O  0.80965428  0.39356451  0.78721064    -0.74490
O1259       O  0.76719204  0.28760516  0.80606198    -0.74340
O1260       O  0.82573600  0.33956530  0.77686862    -0.80000
O1261       O  0.79642391  0.28789223  0.83811132    -0.78200
O1262       O  0.82736821  0.35712671  0.82164081    -1.14340
O1263       O  0.85467370  0.33959431  0.86064899    -0.73530
C1264       C  0.84683774  0.35861625  0.87448239     0.97180
C1265       C  0.84004226  0.42488567  0.78999467     0.93580
Al1266     Al  0.79199528  0.34346771  0.79928607     1.55560
O1267       O  0.89578588  0.40979291  0.83826068    -0.78150
C1268       C  0.77349646  0.26929987  0.82208740     0.97750
C1269       C  0.76754788  0.38282169  0.82972017     0.92630
O1270       O  0.80179491  0.40293782  0.83573147    -0.83470
O1271       O  0.51796777  0.38718746  0.62932213    -0.82930
C1272       C  0.94821814  0.31637653  0.71287179     0.96420
O1273       O  0.93483970  0.30151199  0.69335237    -0.72050
O1274       O  0.93889454  0.36074487  0.67483720    -0.75640
Al1275     Al  0.95228554  0.32615196  0.66400614     1.48980
C1276       C  0.95487281  0.39543381  0.66983240     0.91670
O1277       O  0.54025297  0.42584493  0.69114931    -0.81860
O1278       O  0.56357991  0.34642613  0.67254797    -0.75420
Al1279     Al  0.52737275  0.40274322  0.66116979     1.90120
O1280       O  0.55538834  0.38647787  0.70768958    -0.74490
O1281       O  0.98954412  0.28401293  0.68419467    -0.74340
O1282       O  0.98399964  0.33338766  0.71615884    -0.80000
O1283       O  0.96127452  0.28786073  0.65270331    -0.78200
O1284       O  0.50085144  0.35576277  0.67242647    -1.14340
O1285       O  0.95749046  0.34511405  0.63322499    -0.73530
C1286       C  0.98484604  0.36827961  0.62087767     0.97180
C1287       C  0.55742091  0.41859876  0.70694905     0.93580
Al1288     Al  0.52144218  0.33836539  0.69331540     1.55560
O1289       O  0.98745764  0.41286745  0.66112942    -0.78150
C1290       C  0.96532621  0.26747035  0.66780570     0.97750
C1291       C  0.58472983  0.37906856  0.66299461     0.92630
O1292       O  0.57206814  0.40141468  0.65949390    -0.83470
O1293       O  0.86769360  0.04071391  0.70059127    -0.82930
C1294       C  0.79535060  0.46858798  0.61645409     0.96420
O1295       O  0.78267656  0.45414605  0.63619567    -0.72050
O1296       O  0.84167868  0.46022979  0.65633662    -0.75640
Al1297     Al  0.80620205  0.47293306  0.66611590     1.48980
C1298       C  0.87563504  0.47593948  0.66276105     0.91670
O1299       O  0.90455516  0.06205176  0.63780318    -0.81860
O1300       O  0.82406496  0.08339972  0.65795151    -0.75420
Al1301     Al  0.88236768  0.04953731  0.66848542     1.90120
O1302       O  0.86276251  0.07510118  0.62297450    -0.74490
O1303       O  0.76258548  0.00899045  0.64601642    -0.74340
O1304       O  0.81117480  0.00441889  0.61407355    -0.80000
O1305       O  0.76650952  0.47981774  0.67685468    -0.78200
O1306       O  0.83484336  0.02163821  0.65768981    -1.14340
O1307       O  0.82443368  0.48018749  0.69725346    -0.73530
C1308       C  0.84747040  0.00808568  0.70949975     0.97180
C1309       C  0.89498739  0.07788303  0.62220044     0.93580
Al1310     Al  0.81613084  0.04128559  0.63718573     1.55560
O1311       O  0.89305706  0.01004369  0.66926515    -0.78150
C1312       C  0.74626096  0.48426175  0.66193202     0.97750
C1313       C  0.85734601  0.10603689  0.66643383     0.92630
O1314       O  0.88075764  0.09462925  0.66987440    -0.83470
O1315       O  0.87229002  0.36768897  0.46062939    -0.82930
C1316       C  0.80091011  0.36961538  0.54449759     0.96420
O1317       O  0.78916291  0.37112640  0.52439685    -0.72050
O1318       O  0.84857725  0.42509753  0.50545283    -0.75640
Al1319     Al  0.81340504  0.37633000  0.49521861     1.48980
C1320       C  0.88290858  0.44249691  0.49974659     0.91670
O1321       O  0.91372245  0.39107667  0.52228839    -0.81860
O1322       O  0.83874185  0.28675575  0.50626000    -0.75420
Al1323     Al  0.88966828  0.37782257  0.49224387     1.89760
O1324       O  0.87460030  0.33812760  0.54058453    -0.74490
O1325       O  0.77242311  0.29551076  0.51501851    -0.74340
O1326       O  0.81800439  0.35096528  0.54787226    -0.80000
O1327       O  0.77525243  0.32903028  0.48446998    -0.78200
O1328       O  0.84312062  0.35757504  0.50407813    -1.14340
O1329       O  0.83089174  0.38725677  0.46395561    -0.73530
C1330       C  0.85188395  0.37984485  0.45153973     0.97180
C1331       C  0.90625207  0.36844855  0.53921998     0.93580
Al1332     Al  0.82664349  0.32033050  0.52540002     1.55560
O1333       O  0.89870899  0.42662516  0.49006023    -0.78150
C1334       C  0.75552598  0.30343469  0.49881164     0.97750
C1335       C  0.87242220  0.29997720  0.49787898     0.92630
O1336       O  0.89112189  0.33400619  0.49228248    -0.83470
O1337       O  0.51727536  0.15765899  0.53726092    -0.82930
C1338       C  0.95075567  0.14982251  0.45323057     0.96420
O1339       O  0.94521723  0.13170841  0.47209184    -0.72050
O1340       O  0.96164426  0.11078282  0.51116276    -0.75640
Al1341     Al  0.96117007  0.15433808  0.50153804     1.48980
C1342       C  0.98071958  0.09734613  0.50264469     0.91670
O1343       O  0.57309561  0.17754014  0.47879670    -0.81860
O1344       O  0.57355909  0.24918378  0.48455892    -0.75420
Al1345     Al  0.54215354  0.16944534  0.50645516     1.90120
O1346       O  0.54298522  0.19239071  0.45254094    -0.74490
O1347       O  0.99925772  0.24202343  0.48673241    -0.74340
O1348       O  0.97541719  0.18528145  0.45199638    -0.80000
O1349       O  0.94664917  0.18961200  0.49411403    -0.78200
O1350       O  0.50878158  0.17992424  0.49270126    -1.14340
O1351       O  0.97576908  0.17650258  0.53121004    -0.73530
C1352       C  0.99124023  0.16362932  0.54492145     0.97180
C1353       C  0.56606846  0.18114459  0.45768922     0.93580
Al1354     Al  0.52204228  0.21516353  0.47090034     1.55560
O1355       O  0.01489845  0.11812096  0.49693810    -0.78150
C1356       C  0.96350105  0.22456876  0.49088613     0.97750
C1357       C  0.59065613  0.24496390  0.50226341     0.92630
O1358       O  0.57158288  0.21940981  0.51674598    -0.83470
O1359       O  0.83657116  0.49021195  0.29255537    -0.82930
C1360       C  0.84712030  0.05611212  0.38092264     0.96420
O1361       O  0.84708909  0.07181948  0.36197140    -0.72050
O1362       O  0.89950683  0.06748936  0.33866101    -0.75640
Al1363     Al  0.84943775  0.05511104  0.33116821     1.48980
C1364       C  0.91611103  0.05214101  0.32889656     0.91670
O1365       O  0.86307646  0.46523407  0.35196843    -0.81860
O1366       O  0.75840267  0.44314205  0.33990792    -0.75420
Al1367     Al  0.84806511  0.47906563  0.32338574     1.90120
O1368       O  0.81136321  0.45073023  0.37157794    -0.74490
O1369       O  0.77183869  0.01721902  0.35392545    -0.74340
O1370       O  0.82916283  0.02022309  0.38262366    -0.80000
O1371       O  0.80169636  0.04781717  0.32268980    -0.78200
O1372       O  0.83042773  0.00586004  0.33790136    -1.14340
O1373       O  0.85758365  0.05075151  0.29944905    -0.73530
C1374       C  0.85094731  0.02430223  0.28546996     0.97180
C1375       C  0.84125499  0.44880401  0.36893945     0.93580
Al1376     Al  0.79509248  0.48463664  0.35999203     1.55560
O1377       O  0.89796687  0.01890627  0.32090006    -0.78150
C1378       C  0.77846412  0.04263057  0.33851880     0.97750
C1379       C  0.76795868  0.42104400  0.32968094     0.92630
O1380       O  0.80174888  0.43347231  0.32329215    -0.83470
O1381       O  0.64352168  0.14365325  0.36661200    -0.82930
C1382       C  0.65384095  0.21070203  0.27906023     0.96420
O1383       O  0.65243137  0.22517890  0.29803588    -0.72050
O1384       O  0.59394771  0.16398388  0.31320217    -0.75640
Al1385     Al  0.63981067  0.19970881  0.32727451     1.48980
C1386       C  0.57476220  0.12980072  0.31953643     0.91670
O1387       O  0.63193628  0.09890282  0.30622557    -0.81860
O1388       O  0.73201921  0.17908707  0.32683017    -0.75420
Al1389     Al  0.63943582  0.12454494  0.33533624     1.90120
O1390       O  0.68663874  0.13816570  0.29024930    -0.74490
O1391       O  0.72220247  0.24180674  0.31300554    -0.74340
O1392       O  0.67175699  0.19253857  0.27828983    -0.80000
O1393       O  0.68452424  0.23808851  0.34126093    -0.78200
O1394       O  0.66052265  0.17045639  0.32246072    -1.14340
O1395       O  0.62112145  0.18136038  0.35759233    -0.73530
C1396       C  0.62715581  0.16197062  0.37245820     0.97180
C1397       C  0.65681983  0.10575577  0.29099594     0.93580
Al1398     Al  0.70051709  0.18713309  0.30375035     1.55560
O1399       O  0.58915297  0.11445177  0.33198941    -0.78150
C1400       C  0.71219506  0.25829717  0.32815010     0.97750
C1401       C  0.72010406  0.14690857  0.33704343     0.92630
O1402       O  0.68507750  0.12526502  0.34027499    -0.83470
O1403       O  0.97079795  0.13402746  0.12500226    -0.82930
C1404       C  0.54887215  0.19977109  0.20564306     0.96420
O1405       O  0.55150452  0.18532150  0.18686655    -0.72050
O1406       O  0.52988413  0.14228940  0.15044162    -0.75640
Al1407     Al  0.53181117  0.18867660  0.15801980     1.48980
C1408       C  0.50875815  0.10954733  0.15865686     0.91670
O1409       O  0.92046694  0.10312649  0.18475868    -0.81860
O1410       O  0.92039654  0.17205166  0.18031152    -0.75420
Al1411     Al  0.94923608  0.12401006  0.15634366     1.90120
O1412       O  0.95513732  0.14628230  0.21075488    -0.74490
O1413       O  0.99405878  0.23907487  0.17500266    -0.74340
O1414       O  0.52272650  0.20833601  0.20800579    -0.80000
O1415       O  0.54603297  0.23992509  0.16357945    -0.78200
O1416       O  0.98488949  0.16776283  0.16875031    -1.14340
O1417       O  0.51557333  0.19361364  0.12815481    -0.73530
C1418       C  0.99664431  0.16439038  0.11573073     0.97180
C1419       C  0.92956610  0.11276844  0.20578819     0.93580
Al1420     Al  0.97384796  0.19009530  0.19148559     1.55560
O1421       O  0.97541313  0.09871472  0.16513840    -0.78150
C1422       C  0.52877100  0.25746989  0.16848225     0.97750
C1423       C  0.90193008  0.15170120  0.16267215     0.92630
O1424       O  0.92009472  0.14601949  0.14703831    -0.83470
O1425       O  0.62167414  0.48356295  0.20283460    -0.82930
C1426       C  0.68722939  0.06461251  0.11856053     0.96420
O1427       O  0.69633624  0.07696567  0.13887195    -0.72050
O1428       O  0.63342257  0.06207999  0.15805133    -0.75640
Al1429     Al  0.67345859  0.05434178  0.16739775     1.48980
C1430       C  0.59968676  0.04261895  0.16486238     0.91670
O1431       O  0.57586833  0.46113735  0.14174399    -0.81860
O1432       O  0.65934044  0.44393306  0.15292063    -0.75420
Al1433     Al  0.60210385  0.47422011  0.17122354     1.90120
O1434       O  0.61951354  0.45920398  0.12021815    -0.74490
O1435       O  0.72018323  0.02027090  0.14706063    -0.74340
O1436       O  0.67327911  0.02948441  0.11468574    -0.80000
O1437       O  0.71666644  0.05176289  0.17706978    -0.78200
O1438       O  0.64775457  0.00548938  0.15838284    -1.14340
O1439       O  0.65705058  0.04538054  0.19839267    -0.73530
C1440       C  0.63950640  0.01686003  0.21135438     0.97180
C1441       C  0.58593324  0.45290028  0.12287304     0.93580
Al1442     Al  0.66689473  0.48955734  0.13594102     1.55560
O1443       O  0.58722187  0.01068788  0.17426435    -0.78150
C1444       C  0.73654102  0.04475553  0.16332547     0.97750
C1445       C  0.62794994  0.42006703  0.16251978     0.92630
O1446       O  0.60590595  0.43056373  0.17025848    -0.83470
O1447       O  0.62258760  0.16671509  0.96210317    -0.82930
C1448       C  0.69292645  0.17062084  0.04742851     0.96420
O1449       O  0.70710364  0.16997261  0.02811062    -0.72050
O1450       O  0.64771119  0.11425652  0.00989013    -0.75640
Al1451     Al  0.68269485  0.16190060  0.99834663     1.48980
C1452       C  0.61360700  0.09568808  0.00358324     0.91670
O1453       O  0.58334264  0.15267246  0.02359697    -0.81860
O1454       O  0.66325970  0.25426917  0.00329366    -0.75420
Al1455     Al  0.60666309  0.16158915  0.99376455     1.90120
O1456       O  0.62326888  0.20766491  0.03908170    -0.74490
O1457       O  0.72589973  0.24249252  0.01639975    -0.74340
O1458       O  0.67624296  0.18991608  0.04925691    -0.80000
O1459       O  0.72105938  0.20805856  0.98621091    -0.78200
O1460       O  0.65354175  0.18192790  0.00541036    -1.14340
O1461       O  0.66433250  0.14784380  0.96742744    -0.73530
C1462       C  0.64240864  0.15320049  0.95427102     0.97180
C1463       C  0.59076725  0.17812735  0.03859036     0.93580
Al1464     Al  0.67133274  0.22097631  0.02524216     1.55560
O1465       O  0.59657782  0.11153589  0.99472482    -0.78150
C1466       C  0.74190332  0.23331533  0.00058548     0.97750
C1467       C  0.63039672  0.24281836  0.99384427     0.92630
O1468       O  0.60790269  0.20778799  0.99086341    -0.83470
O1469       O  0.97030497  0.36091096  0.03314733    -0.82930
C1470       C  0.53811060  0.36728316  0.94612686     0.96420
O1471       O  0.55274765  0.36718742  0.96546073    -0.72050
O1472       O  0.54409755  0.41961052  0.98503222    -0.75640
Al1473     Al  0.53525221  0.37214597  0.99521508     1.48980
C1474       C  0.52794640  0.43653275  0.99334768     0.91670
O1475       O  0.94021180  0.37771984  0.97239910    -0.81860
O1476       O  0.92537600  0.27725254  0.98737146    -0.75420
Al1477     Al  0.95732139  0.36755125  0.00160471     1.90120
O1478       O  0.93112285  0.32672124  0.95398323    -0.74490
O1479       O  0.00063263  0.29321544  0.97510271    -0.74340
O1480       O  0.50223511  0.34793789  0.94374852    -0.80000
O1481       O  0.53105447  0.32627975  0.00584522    -0.78200
O1482       O  0.98577057  0.35049893  0.98829593    -1.14340
O1483       O  0.53085696  0.38385240  0.02616501    -0.73530
C1484       C  0.00460655  0.37779051  0.04005103     0.97180
C1485       C  0.92494407  0.35419635  0.95592816     0.93580
Al1486     Al  0.96648385  0.31378950  0.96695168     1.55560
O1487       O  0.99539360  0.41855609  0.00207196    -0.78150
C1488       C  0.52599768  0.30148556  0.99091925     0.97750
C1489       C  0.90292769  0.28612751  0.99782138     0.92630
O1490       O  0.91402616  0.32007503  0.00334390    -0.83470
O1491       O  0.64260501  0.04036322  0.79448607    -0.82930
C1492       C  0.64598304  0.47521379  0.88003589     0.96420
O1493       O  0.64592292  0.46008416  0.86095380    -0.72050
O1494       O  0.59017175  0.46402238  0.84249323    -0.75640
Al1495     Al  0.63746908  0.47593348  0.83115944     1.48980
C1496       C  0.57140651  0.47929666  0.83577418     0.91670
O1497       O  0.62718098  0.06536611  0.85598425    -0.81860
O1498       O  0.72905633  0.08701104  0.83571288    -0.75420
Al1499     Al  0.63676373  0.05136919  0.82605537     1.90120
O1500       O  0.68280315  0.08178305  0.87151558    -0.74490
O1501       O  0.71790204  0.01364617  0.84931764    -0.74340
O1502       O  0.66487573  0.01116107  0.88210960    -0.80000
O1503       O  0.68341519  0.48320825  0.81911843    -0.78200
O1504       O  0.65729128  0.02510832  0.83799675    -1.14340
O1505       O  0.62345015  0.47983185  0.80036511    -0.73530
C1506       C  0.62940101  0.00683435  0.78691267     0.97180
C1507       C  0.65228958  0.08312321  0.87134543     0.93580
Al1508     Al  0.69617030  0.04665859  0.85795564     1.55560
O1509       O  0.58698502  0.01144258  0.82632428    -0.78150
C1510       C  0.70954791  0.48888672  0.83323391     0.97750
C1511       C  0.71756295  0.10822412  0.82599038     0.92630
O1512       O  0.68256329  0.09631790  0.82347201    -0.83470
C1513       C  0.60213498  0.39981379  0.92732238    -0.10290
C1514       C  0.56416598  0.39245302  0.92750451     0.05900
C1515       C  0.55450134  0.41443772  0.91272884    -0.04060
C1516       C  0.58241516  0.44296226  0.89858738    -0.08510
C1517       C  0.62013588  0.45006005  0.89845750     0.05020
C1518       C  0.62971672  0.42781486  0.91276345    -0.03530
Br1519     Br  0.68027324  0.43512058  0.91296519    -0.03230
H1520       H  0.61053834  0.38385262  0.93874137     0.08930
H1521       H  0.57439816  0.45938908  0.88732724     0.06950
Br1522     Br  0.00439658  0.40848350  0.91182950    -0.03660
C1523       C  0.61193272  0.08902366  0.90187829    -0.10290
C1524       C  0.64635360  0.10542359  0.88957435     0.05900
C1525       C  0.67608882  0.14157412  0.89654904    -0.04060
C1526       C  0.67256279  0.15896978  0.91654165    -0.08510
C1527       C  0.63954959  0.14117469  0.92990608     0.05020
C1528       C  0.60849424  0.10646858  0.92209687    -0.03530
Br1529     Br  0.56288886  0.07945907  0.94006457    -0.03230
H1530       H  0.58872319  0.06133001  0.89677823     0.08930
H1531       H  0.69668690  0.18546765  0.92250840     0.06950
Br1532     Br  0.72270171  0.16860284  0.87996078    -0.03660
C1533       C  0.58939357  0.30814252  0.00264297    -0.10290
C1534       C  0.55472536  0.28810361  0.98985807     0.05900
C1535       C  0.55136636  0.25968543  0.97431994    -0.04060
C1536       C  0.58017623  0.25008623  0.97331314    -0.08510
C1537       C  0.61269498  0.26694614  0.98807172     0.05020
C1538       C  0.61826433  0.29822081  0.00161916    -0.03530
Br1539     Br  0.66420922  0.32783753  0.01926442    -0.03230
H1540       H  0.59430642  0.33188320  0.01361500     0.08930
H1541       H  0.57541305  0.22664154  0.96207947     0.06950
Br1542     Br  0.50732971  0.23061135  0.95493334    -0.03660
C1543       C  0.84508224  0.26834043  0.02091487    -0.10290
C1544       C  0.86113519  0.26041772  0.00144918     0.05900
C1545       C  0.83671882  0.24150208  0.98249552    -0.04060
C1546       C  0.79897077  0.23466199  0.98227403    -0.08510
C1547       C  0.78379323  0.24553189  0.00098236     0.05020
C1548       C  0.80733908  0.26128447  0.02089346    -0.03530
Br1549     Br  0.79059222  0.27426574  0.04882608    -0.03230
H1550       H  0.86318038  0.28307265  0.03573016     0.08930
H1551       H  0.78136926  0.22066798  0.96717177     0.06950
Br1552     Br  0.85398774  0.22590578  0.95597151    -0.03660
C1553       C  0.58904887  0.49516881  0.99523611    -0.10290
C1554       C  0.54919796  0.47749788  0.99570853     0.05900
C1555       C  0.53133256  0.49860586  0.00156868    -0.04060
C1556       C  0.55365885  0.03691935  0.00626836    -0.08510
C1557       C  0.59330530  0.05478054  0.00470391     0.05020
C1558       C  0.61133343  0.03362165  0.99978084    -0.03530
Br1559     Br  0.66556454  0.05503930  0.99735651    -0.03230
H1560       H  0.60315355  0.47900823  0.99152510     0.08930
H1561       H  0.53983214  0.05332856  0.01011440     0.06950
Br1562     Br  0.97714778  0.47856680  0.00260875    -0.03660
C1563       C  0.70860530  0.12148889  0.06200606    -0.10290
C1564       C  0.69410029  0.14617844  0.06679726     0.05900
C1565       C  0.67780433  0.14341698  0.08892946    -0.04060
C1566       C  0.67662001  0.11701128  0.10530108    -0.08510
C1567       C  0.69033985  0.09202860  0.10020861     0.05020
C1568       C  0.70652398  0.09451187  0.07830426    -0.03530
Br1569     Br  0.72721158  0.06261905  0.07013415    -0.03230
H1570       H  0.72096712  0.12239330  0.04519954     0.08930
H1571       H  0.66387055  0.11533051  0.12209820     0.06950
Br1572     Br  0.65539734  0.17345647  0.09814778    -0.03660
C1573       C  0.54758365  0.43517661  0.06154838    -0.10290
C1574       C  0.51721685  0.39760778  0.06272427     0.05900
C1575       C  0.50517090  0.38035746  0.08469900    -0.04060
C1576       C  0.52613223  0.39978395  0.10483308    -0.08510
C1577       C  0.55900456  0.43612607  0.10305914     0.05020
C1578       C  0.56872274  0.45406277  0.08113917    -0.03530
Br1579     Br  0.61202124  0.50347821  0.07600294    -0.03230
H1580       H  0.55662940  0.44929461  0.04480946     0.08930
H1581       H  0.51823623  0.38557635  0.12157136     0.06950
Br1582     Br  0.96262030  0.32986721  0.08755442    -0.03660
C1583       C  0.53294752  0.13737039  0.06263501    -0.10290
C1584       C  0.56127850  0.17387567  0.05550149     0.05900
C1585       C  0.56094903  0.20587749  0.06494984    -0.04060
C1586       C  0.53544097  0.20124879  0.08244958    -0.08510
C1587       C  0.51038039  0.16524765  0.09170209     0.05020
C1588       C  0.50756273  0.13275114  0.08058743    -0.03530
Br1589     Br  0.47162278  0.08153606  0.08970742    -0.03230
H1590       H  0.53168969  0.11230674  0.05503343     0.08930
H1591       H  0.53732256  0.22655699  0.09013934     0.06950
Br1592     Br  0.59485749  0.25729516  0.05569452    -0.03660
C1593       C  0.79479738  0.10507050  0.17682338    -0.10290
C1594       C  0.77930275  0.06998433  0.16462760     0.05900
C1595       C  0.80476321  0.06314221  0.15171959    -0.04060
C1596       C  0.84356556  0.09095557  0.15063419    -0.08510
C1597       C  0.85909766  0.12618192  0.16261706     0.05020
C1598       C  0.83390907  0.13268141  0.17603203    -0.03530
Br1599     Br  0.85075124  0.17949662  0.19256555    -0.03230
H1600       H  0.77618313  0.11180272  0.18663422     0.08930
H1601       H  0.86198534  0.08412681  0.14070712     0.06950
Br1602     Br  0.78915166  0.51579935  0.13596538    -0.03660
C1603       C  0.58066337  0.31872709  0.18463520    -0.10290
C1604       C  0.55230122  0.29986226  0.16742191     0.05900
C1605       C  0.55460971  0.31999072  0.14689203    -0.04060
C1606       C  0.58330845  0.35840820  0.14436585    -0.08510
C1607       C  0.61086241  0.37785856  0.16195468     0.05020
C1608       C  0.60916219  0.35730503  0.18220712    -0.03530
Br1609     Br  0.64493730  0.38142691  0.20713179    -0.03230
H1610       H  0.58083536  0.30319904  0.20002415     0.08930
H1611       H  0.58278571  0.37387671  0.12903641     0.06950
Br1612     Br  0.01906216  0.29573672  0.12186399    -0.03660
C1613       C  0.56462843  0.06866507  0.18345989    -0.10290
C1614       C  0.57439317  0.05741065  0.16299755     0.05900
C1615       C  0.55776454  0.05780997  0.14160454    -0.04060
C1616       C  0.53311242  0.07216960  0.14068975    -0.08510
C1617       C  0.52461031  0.08509281  0.16101304     0.05020
C1618       C  0.53971380  0.08261299  0.18258896    -0.03530
Br1619     Br  0.53040795  0.10120889  0.21081122    -0.03230
H1620       H  0.57726424  0.06755975  0.20001067     0.08930
H1621       H  0.52192608  0.07486590  0.12397146     0.06950
Br1622     Br  0.56785298  0.03924997  0.11354412    -0.03660
C1623       C  0.60759083  0.19954770  0.21918212    -0.10290
C1624       C  0.57752154  0.20656848  0.22434123     0.05900
C1625       C  0.57565604  0.21855073  0.24708963    -0.04060
C1626       C  0.60212500  0.22146373  0.26398682    -0.08510
C1627       C  0.63093903  0.21253722  0.25910623     0.05020
C1628       C  0.63390240  0.20225220  0.23615846    -0.03530
Br1629     Br  0.67304942  0.19170251  0.22660185    -0.03230
H1630       H  0.61047141  0.19109417  0.20178931     0.08930
H1631       H  0.59899559  0.22943430  0.28146472     0.06950
Br1632     Br  0.53727586  0.23004387  0.25701154    -0.03660
C1633       C  0.61415411  0.05088018  0.26499046    -0.10290
C1634       C  0.65095543  0.07577245  0.27374096     0.05900
C1635       C  0.68167701  0.07246433  0.26492355    -0.04060
C1636       C  0.67585283  0.04738983  0.24663919    -0.08510
C1637       C  0.63989499  0.02551403  0.23630888     0.05020
C1638       C  0.60854663  0.02623097  0.24627323    -0.03530
Br1639     Br  0.55853665  0.99805298  0.23283976    -0.03230
H1640       H  0.59001889  0.05251958  0.27156280     0.08930
H1641       H  0.70036216  0.04771787  0.23891150     0.06950
Br1642     Br  0.73283620  0.10229672  0.27607935    -0.03660
C1643       C  0.90892536  0.06093000  0.26364121    -0.10290
C1644       C  0.86935378  0.03690670  0.26260639     0.05900
C1645       C  0.84987114  0.03513112  0.24186759    -0.04060
C1646       C  0.87023266  0.05838579  0.22283821    -0.08510
C1647       C  0.90958691  0.08497357  0.22478697     0.05020
C1648       C  0.92879678  0.08569778  0.24556516    -0.03530
Br1649     Br  0.98145533  0.12143003  0.25176622    -0.03230
H1650       H  0.92415825  0.06298137  0.27960405     0.08930
H1651       H  0.85486089  0.05752134  0.20711470     0.06950
Br1652     Br  0.79561521  0.50415213  0.23971477    -0.03660
C1653       C  0.71819504  0.31711213  0.34713732    -0.10290
C1654       C  0.72673042  0.30066389  0.32805864     0.05900
C1655       C  0.74207684  0.32361086  0.30797413    -0.04060
C1656       C  0.75006481  0.36167841  0.30784356    -0.08510
C1657       C  0.74352908  0.37870420  0.32735727     0.05020
C1658       C  0.72632342  0.35532643  0.34693642    -0.03530
Br1659     Br  0.71564792  0.37465974  0.37457242    -0.03230
H1660       H  0.70514656  0.30012805  0.36253348     0.08930
H1661       H  0.76387824  0.37905662  0.29268753     0.06950
Br1662     Br  0.75269670  0.30536030  0.27978504    -0.03660
C1663       C  0.72712999  0.09632531  0.35742547    -0.10290
C1664       C  0.74390968  0.12898280  0.34286706     0.05900
C1665       C  0.77516798  0.13482203  0.32933709    -0.04060
C1666       C  0.78522933  0.10618239  0.32815922    -0.08510
C1667       C  0.76533842  0.07138039  0.34064900     0.05020
C1668       C  0.73709250  0.06771798  0.35628488    -0.03530
Br1669     Br  0.70887070  0.02344441  0.37540683    -0.03230
H1670       H  0.70360207  0.09132877  0.36855982     0.08930
H1671       H  0.80878608  0.11126616  0.31704770     0.06950
Br1672     Br  0.80383985  0.18008083  0.31107229    -0.03660
C1673       C  0.97525789  0.05167802  0.32336735    -0.10290
C1674       C  0.95675065  0.07299415  0.32502312     0.05900
C1675       C  0.97626498  0.11211681  0.31951493    -0.04060
C1676       C  0.51488543  0.12986199  0.31473212    -0.08510
C1677       C  0.53402939  0.10903024  0.31549018     0.05020
C1678       C  0.51348998  0.06919283  0.31812715    -0.03530
Br1679     Br  0.53575019  0.03707839  0.31522637    -0.03230
H1680       H  0.95992675  0.02113773  0.32626359     0.08930
H1681       H  0.53038477  0.16045319  0.31211394     0.06950
Br1682     Br  0.95232953  0.14281657  0.31761497    -0.03660
C1683       C  0.90061488  0.13806625  0.42356649    -0.10290
C1684       C  0.92689912  0.12856295  0.43303372     0.05900
C1685       C  0.92613013  0.09512936  0.42536584    -0.04060
C1686       C  0.89842189  0.07100772  0.40941751    -0.08510
C1687       C  0.87182185  0.08007157  0.40012207     0.05020
C1688       C  0.87346353  0.11433362  0.40696644    -0.03530
Br1689     Br  0.83803912  0.12876929  0.39501854    -0.03230
H1690       H  0.90050061  0.16335620  0.42956993     0.08930
H1691       H  0.89861987  0.04572108  0.40350534     0.06950
Br1692     Br  0.96390368  0.08230653  0.43485163    -0.03660
C1693       C  0.55929787  0.15549045  0.41843356    -0.10290
C1694       C  0.58272211  0.17080228  0.43804784     0.05900
C1695       C  0.62062233  0.17792126  0.43706749    -0.04060
C1696       C  0.63485140  0.17239725  0.41591467    -0.08510
C1697       C  0.61138475  0.15918293  0.39596770     0.05020
C1698       C  0.57287459  0.14914739  0.39789409    -0.03530
Br1699     Br  0.53680051  0.12755308  0.37293848    -0.03230
H1700       H  0.53011559  0.14951777  0.41873878     0.08930
H1701       H  0.66460674  0.18042390  0.41471679     0.06950
Br1702     Br  0.65481793  0.19840784  0.46307238    -0.03660
C1703       C  0.88603256  0.42308699  0.41883883    -0.10290
C1704       C  0.85421902  0.38933599  0.42662557     0.05900
C1705       C  0.82124859  0.37201002  0.41265527    -0.04060
C1706       C  0.81883027  0.39052422  0.39266083    -0.08510
C1707       C  0.84917633  0.42623159  0.38609178     0.05020
C1708       C  0.88382801  0.44151684  0.39857180    -0.03530
Br1709     Br  0.92698511  0.48971305  0.39052975    -0.03230
H1710       H  0.91142149  0.43695790  0.42963957     0.08930
H1711       H  0.79238796  0.37791044  0.38286042     0.06950
Br1712     Br  0.77806912  0.32418028  0.42112747    -0.03660
C1713       C  0.69121389  0.26265368  0.51651804    -0.10290
C1714       C  0.71303771  0.28785089  0.49879007     0.05900
C1715       C  0.69447294  0.30212851  0.48391255    -0.04060
C1716       C  0.65539766  0.28935393  0.48619519    -0.08510
C1717       C  0.63343883  0.26355244  0.50359682     0.05020
C1718       C  0.65247406  0.25099294  0.51935243    -0.03530
Br1719     Br  0.62882042  0.21794312  0.54560369    -0.03230
H1720       H  0.70461189  0.25246999  0.52878660     0.08930
H1721       H  0.64196238  0.29956892  0.47397956     0.06950
Br1722     Br  0.71944076  0.34053407  0.46043825    -0.03660
C1723       C  0.87701299  0.24002182  0.49526918    -0.10290
C1724       C  0.89483197  0.27966226  0.49594126     0.05900
C1725       C  0.93585777  0.30078970  0.49459986    -0.04060
C1726       C  0.95694864  0.28224824  0.49281476    -0.08510
C1727       C  0.93931725  0.24287793  0.49209627     0.05020
C1728       C  0.89844047  0.22149305  0.49300801    -0.03530
Br1729     Br  0.86842541  0.16686443  0.49025979    -0.03230
H1730       H  0.84622690  0.22334097  0.49599579     0.08930
H1731       H  0.98775789  0.29898379  0.49216522     0.06950
Br1732     Br  0.96810329  0.35551913  0.49557044    -0.03660
C1733       C  0.94005944  0.49560179  0.51489851    -0.10290
C1734       C  0.90555364  0.48219473  0.50272036     0.05900
C1735       C  0.89848496  0.50590049  0.48845306    -0.04060
C1736       C  0.92601940  0.04349858  0.48686501    -0.08510
C1737       C  0.96049671  0.05737368  0.49911689     0.05020
C1738       C  0.96784945  0.03353835  0.51319856    -0.03530
Br1739     Br  0.51358096  0.05209683  0.53146083    -0.03230
H1740       H  0.94553076  0.47631512  0.52523174     0.08930
H1741       H  0.91959528  0.06230690  0.47689869     0.06950
Br1742     Br  0.85314699  0.48797255  0.46972383    -0.03660
C1743       C  0.78090326  0.40405364  0.60195925    -0.10290
C1744       C  0.79345458  0.44285480  0.59697711     0.05900
C1745       C  0.80714729  0.45612740  0.57426729    -0.04060
C1746       C  0.80831884  0.43132759  0.55771654    -0.08510
C1747       C  0.79726145  0.39324870  0.56307350     0.05020
C1748       C  0.78328678  0.37964070  0.58547975    -0.03530
Br1749     Br  0.76591886  0.32772541  0.59405891    -0.03230
H1750       H  0.76987696  0.39261478  0.61902551     0.08930
H1751       H  0.81900967  0.44237120  0.54052840     0.06950
Br1752     Br  0.82556197  0.00766019  0.56423077    -0.03660
C1753       C  0.93468549  0.14189388  0.56922462    -0.10290
C1754       C  0.97156975  0.14725164  0.56738721     0.05900
C1755       C  0.98387008  0.13030236  0.58442792    -0.04060
C1756       C  0.95896683  0.10821376  0.60240242    -0.08510
C1757       C  0.92120318  0.10123872  0.60319083     0.05020
C1758       C  0.90925051  0.11814361  0.58581731    -0.03530
Br1759     Br  0.85795574  0.10833469  0.58097116    -0.03230
H1760       H  0.92386477  0.15382749  0.55635076     0.08930
H1761       H  0.96896195  0.09583146  0.61548986     0.06950
Br1762     Br  0.53382450  0.13602242  0.58414820    -0.03660
C1763       C  0.95938544  0.40007190  0.59621777    -0.10290
C1764       C  0.97556523  0.37638527  0.59756000     0.05900
C1765       C  0.97294301  0.35400316  0.57830264    -0.04060
C1766       C  0.95227889  0.35376431  0.55855269    -0.08510
C1767       C  0.93456557  0.37608453  0.55763968     0.05020
C1768       C  0.93883560  0.39995542  0.57646306    -0.03530
Br1769     Br  0.91258717  0.42849708  0.57720250    -0.03230
H1770       H  0.96013562  0.41641218  0.61132893     0.08930
H1771       H  0.94803699  0.33428655  0.54450582     0.06950
Br1772     Br  0.49411015  0.32089838  0.57925183    -0.03660
C1773       C  0.64164064  0.42962194  0.64320029    -0.10290
C1774       C  0.62635857  0.39679686  0.65759081     0.05900
C1775       C  0.65212605  0.39124106  0.67132938    -0.04060
C1776       C  0.69066474  0.42030598  0.67277843    -0.08510
C1777       C  0.70459077  0.45535756  0.66063776     0.05020
C1778       C  0.67943662  0.45906342  0.64518090    -0.03530
Br1779     Br  0.69316894  0.00470768  0.62768720    -0.03230
H1780       H  0.62291916  0.43441143  0.63183304     0.08930
H1781       H  0.70970738  0.41547874  0.68378451     0.06950
Br1782     Br  0.63598506  0.34588833  0.68946740    -0.03660
C1783       C  0.90106412  0.16406562  0.68864053    -0.10290
C1784       C  0.87429213  0.14797193  0.67027068     0.05900
C1785       C  0.87681270  0.17236340  0.65196062    -0.04060
C1786       C  0.90730929  0.21021922  0.65113406    -0.08510
C1787       C  0.93592534  0.22554346  0.66864697     0.05020
C1788       C  0.93136032  0.20191729  0.68806572    -0.03530
Br1789     Br  0.96538443  0.21832930  0.71443125    -0.03230
H1790       H  0.90007626  0.14594836  0.70290251     0.08930
H1791       H  0.90844790  0.22779735  0.63653651     0.06950
Br1792     Br  0.84017096  0.15505677  0.62715477    -0.03660
C1793       C  0.89557894  0.39502550  0.66490532    -0.10290
C1794       C  0.93380674  0.41494266  0.67161986     0.05900
C1795       C  0.95232196  0.45413395  0.67610845    -0.04060
C1796       C  0.93285833  0.47342691  0.67231286    -0.08510
C1797       C  0.89485892  0.45404489  0.66456850     0.05020
C1798       C  0.87575619  0.41413333  0.66127444    -0.03530
Br1799     Br  0.82343281  0.38293426  0.65183826    -0.03230
H1800       H  0.88153461  0.36469291  0.66136476     0.08930
H1801       H  0.94771749  0.00381125  0.67567433     0.06950
Br1802     Br  0.50363438  0.48295232  0.68771577    -0.03660
C1803       C  0.56607537  0.46988763  0.73454075    -0.10290
C1804       C  0.58029750  0.44780399  0.72465549     0.05900
C1805       C  0.61550803  0.45283027  0.73278954    -0.04060
C1806       C  0.63430346  0.47729056  0.75133663    -0.08510
C1807       C  0.61844791  0.49664459  0.76251268     0.05020
C1808       C  0.58465857  0.49389284  0.75355444    -0.03530
Br1809     Br  0.56004504  0.51787122  0.76872892    -0.03230
H1810       H  0.53902969  0.46631191  0.72867162     0.08930
H1811       H  0.65987131  0.47864978  0.75841352     0.06950
Br1812     Br  0.63904771  0.42603032  0.72041403    -0.03660
C1813       C  0.87908253  0.39075896  0.91159468    -0.10290
C1814       C  0.85569033  0.35684174  0.89934806     0.05900
C1815       C  0.85050609  0.32224228  0.90856902    -0.04060
C1816       C  0.87172206  0.32248779  0.92782626    -0.08510
C1817       C  0.89847263  0.35661328  0.93864800     0.05020
C1818       C  0.90029437  0.39088617  0.93124500    -0.03530
Br1819     Br  0.93367629  0.43902166  0.94548334    -0.03230
H1820       H  0.88355225  0.41764624  0.90469415     0.08930
H1821       H  0.86847131  0.29559226  0.93367272     0.06950
Br1822     Br  0.81721531  0.27366210  0.89439880    -0.03660
C1823       C  0.78203448  0.21387289  0.83344260    -0.10290
C1824       C  0.76164873  0.22772330  0.82018969     0.05900
C1825       C  0.73428120  0.20247104  0.80417012    -0.04060
C1826       C  0.72528849  0.16417337  0.80355209    -0.08510
C1827       C  0.74188854  0.14923725  0.81921234     0.05020
C1828       C  0.77264376  0.17535807  0.83296457    -0.03530
Br1829     Br  0.80023733  0.15960438  0.85317590    -0.03230
H1830       H  0.80508847  0.23288791  0.84484348     0.08930
H1831       H  0.70220418  0.14496728  0.79218204     0.06950
Br1832     Br  0.70585322  0.21719263  0.78391600    -0.03660
C1833       C  0.51315704  0.41798087  0.83609631    -0.10290
C1834       C  0.53060272  0.45782075  0.83642304     0.05900
C1835       C  0.50891796  0.47603954  0.83392446    -0.04060
C1836       C  0.97051990  0.45413355  0.82975925    -0.08510
C1837       C  0.95301678  0.41436109  0.82941911     0.05020
C1838       C  0.97432237  0.39594784  0.83275851    -0.03530
Br1839     Br  0.95267833  0.34157220  0.83433712    -0.03230
H1840       H  0.52979891  0.40384741  0.83796594     0.08930
H1841       H  0.95396266  0.46833076  0.82756790     0.06950
Br1842     Br  0.52872696  0.03008590  0.83706471    -0.03660
C1843       C  0.70738207  0.42963219  0.81745762    -0.10290
C1844       C  0.72437068  0.46124438  0.83290742     0.05900
C1845       C  0.75068342  0.46199860  0.84943342    -0.04060
C1846       C  0.75949353  0.43254494  0.85001820    -0.08510
C1847       C  0.74461869  0.40234034  0.83358363     0.05020
C1848       C  0.71733443  0.40075815  0.81757591    -0.03530
Br1849     Br  0.69393568  0.36097335  0.79484790    -0.03230
H1850       H  0.68614921  0.42724276  0.80494127     0.08930
H1851       H  0.78069514  0.43496003  0.86259423     0.06950
Br1852     Br  0.77802911  0.00347966  0.87079576    -0.03660
C1853       C  0.90009431  0.31583744  0.76995429    -0.10290
C1854       C  0.86867374  0.31904599  0.76194738     0.05900
C1855       C  0.86387834  0.32102344  0.73777928    -0.04060
C1856       C  0.88950668  0.31888639  0.72239136    -0.08510
C1857       C  0.92123894  0.31626828  0.73044047     0.05020
C1858       C  0.92644017  0.31504072  0.75458936    -0.03530
Br1859     Br  0.96793652  0.31073497  0.76760346    -0.03230
H1860       H  0.90465726  0.31448155  0.78844218     0.08930
H1861       H  0.88479099  0.31997259  0.70389823     0.06950
Br1862     Br  0.82259440  0.32558271  0.72462600    -0.03660
C1863       C  0.82155988  0.46720075  0.76947589    -0.10290
C1864       C  0.84863854  0.45554709  0.77299407     0.05900
C1865       C  0.87958843  0.46852337  0.75766001    -0.04060
C1866       C  0.88159645  0.49070316  0.73827123    -0.08510
C1867       C  0.85285508  0.49983191  0.73378783     0.05020
C1868       C  0.82347660  0.98911629  0.75002992    -0.03530
Br1869     Br  0.78351683  0.00080384  0.74499122    -0.03230
H1870       H  0.79751779  0.45722215  0.78112884     0.08930
H1871       H  0.90358558  0.49756648  0.72543589     0.06950
Br1872     Br  0.91611649  0.45158009  0.76041676    -0.03660
O1873       O  0.83516896  0.88040197  0.86677967    -0.82930
C1874       C  0.84287836  0.82079174  0.77971492     0.96420
O1875       O  0.84020244  0.80462107  0.79890182    -0.72050
O1876       O  0.89419297  0.86104352  0.82063228    -0.75640
Al1877     Al  0.84471626  0.82578308  0.82906508     1.48980
C1878       C  0.91225058  0.89386161  0.82909057     0.91670
O1879       O  0.86192293  0.92988639  0.80707746    -0.81860
O1880       O  0.75641838  0.85097852  0.81913556    -0.75420
Al1881     Al  0.84680234  0.90192883  0.83581752     1.90120
O1882       O  0.80965429  0.89356449  0.78721066    -0.74490
O1883       O  0.76719205  0.78760515  0.80606201    -0.74340
O1884       O  0.82573603  0.83956529  0.77686867    -0.80000
O1885       O  0.79642388  0.78789222  0.83811137    -0.78200
O1886       O  0.82736821  0.85712672  0.82164086    -1.14340
O1887       O  0.85467361  0.83959431  0.86064908    -0.73530
C1888       C  0.84683768  0.85861631  0.87448245     0.97180
C1889       C  0.84004227  0.92488566  0.78999468     0.93580
Al1890     Al  0.79199530  0.84346771  0.79928611     1.55560
O1891       O  0.89578586  0.90979294  0.83826074    -0.78150
C1892       C  0.77349646  0.76929986  0.82208744     0.97750
C1893       C  0.76754787  0.88282169  0.82972018     0.92630
O1894       O  0.80179490  0.90293784  0.83573147    -0.83470
O1895       O  0.51796773  0.88718741  0.62932214    -0.82930
C1896       C  0.94821816  0.81637654  0.71287183     0.96420
O1897       O  0.93483971  0.80151199  0.69335242    -0.72050
O1898       O  0.93889455  0.86074488  0.67483726    -0.75640
Al1899     Al  0.95228553  0.82615196  0.66400618     1.48980
C1900       C  0.95487282  0.89543381  0.66983243     0.91670
O1901       O  0.54025299  0.92584494  0.69114930    -0.81860
O1902       O  0.56357991  0.84642613  0.67254798    -0.75420
Al1903     Al  0.52737274  0.90274321  0.66116979     1.90120
O1904       O  0.55538836  0.88647790  0.70768959    -0.74490
O1905       O  0.98954412  0.78401293  0.68419469    -0.74340
O1906       O  0.98399966  0.83338767  0.71615887    -0.80000
O1907       O  0.96127450  0.78786073  0.65270334    -0.78200
O1908       O  0.50085144  0.85576277  0.67242649    -1.14340
O1909       O  0.95749041  0.84511404  0.63322503    -0.73530
C1910       C  0.98484598  0.86827958  0.62087770     0.97180
C1911       C  0.55742094  0.91859879  0.70694905     0.93580
Al1912     Al  0.52144220  0.83836540  0.69331542     1.55560
O1913       O  0.98745763  0.91286743  0.66112943    -0.78150
C1914       C  0.96532620  0.76747036  0.66780573     0.97750
C1915       C  0.58472982  0.87906855  0.66299462     0.92630
O1916       O  0.57206814  0.90141467  0.65949390    -0.83470
O1917       O  0.86769361  0.54071392  0.70059126    -0.82930
C1918       C  0.79535060  0.96858797  0.61645410     0.96420
O1919       O  0.78267656  0.95414604  0.63619568    -0.72050
O1920       O  0.84167869  0.96022979  0.65633662    -0.75640
Al1921     Al  0.80620205  0.97293305  0.66611590     1.48980
C1922       C  0.87563505  0.97593948  0.66276107     0.91670
O1923       O  0.90455515  0.56205177  0.63780316    -0.81860
O1924       O  0.82406495  0.58339972  0.65795151    -0.75420
Al1925     Al  0.88236768  0.54953732  0.66848541     1.90120
O1926       O  0.86276250  0.57510119  0.62297449    -0.74490
O1927       O  0.76258548  0.50899046  0.64601642    -0.74340
O1928       O  0.81117479  0.50441891  0.61407354    -0.80000
O1929       O  0.76650951  0.97981773  0.67685469    -0.78200
O1930       O  0.83484336  0.52163822  0.65768980    -1.14340
O1931       O  0.82443368  0.98018748  0.69725346    -0.73530
C1932       C  0.84747040  0.50808569  0.70949974     0.97180
C1933       C  0.89498738  0.57788303  0.62220043     0.93580
Al1934     Al  0.81613084  0.54128560  0.63718573     1.55560
O1935       O  0.89305706  0.51004369  0.66926513    -0.78150
C1936       C  0.74626096  0.98426174  0.66193202     0.97750
C1937       C  0.85734601  0.60603690  0.66643383     0.92630
O1938       O  0.88075764  0.59462925  0.66987439    -0.83470
O1939       O  0.87229003  0.86768898  0.46062940    -0.82930
C1940       C  0.80091009  0.86961537  0.54449759     0.96420
O1941       O  0.78916289  0.87112639  0.52439686    -0.72050
O1942       O  0.84857724  0.92509753  0.50545284    -0.75640
Al1943     Al  0.81340503  0.87633000  0.49521861     1.48980
C1944       C  0.88290857  0.94249691  0.49974661     0.91670
O1945       O  0.91372244  0.89107666  0.52228840    -0.81860
O1946       O  0.83874184  0.78675575  0.50626000    -0.75420
Al1947     Al  0.88966827  0.87782257  0.49224388     1.89760
O1948       O  0.87460028  0.83812759  0.54058453    -0.74490
O1949       O  0.77242310  0.79551075  0.51501851    -0.74340
O1950       O  0.81800438  0.85096527  0.54787226    -0.80000
O1951       O  0.77525243  0.82903029  0.48446998    -0.78200
O1952       O  0.84312061  0.85757504  0.50407813    -1.14340
O1953       O  0.83089175  0.88725678  0.46395562    -0.73530
C1954       C  0.85188396  0.87984487  0.45153973     0.97180
C1955       C  0.90625205  0.86844854  0.53921999     0.93580
Al1956     Al  0.82664348  0.82033049  0.52540002     1.55560
O1957       O  0.89870899  0.92662516  0.49006025    -0.78150
C1958       C  0.75552597  0.80343469  0.49881163     0.97750
C1959       C  0.87242219  0.79997720  0.49787898     0.92630
O1960       O  0.89112189  0.83400619  0.49228249    -0.83470
O1961       O  0.51727536  0.65765900  0.53726092    -0.82930
C1962       C  0.95075567  0.64982252  0.45323056     0.96420
O1963       O  0.94521723  0.63170842  0.47209183    -0.72050
O1964       O  0.96164426  0.61078282  0.51116275    -0.75640
Al1965     Al  0.96117007  0.65433808  0.50153803     1.48980
C1966       C  0.98071958  0.59734613  0.50264468     0.91670
O1967       O  0.57309561  0.67754016  0.47879670    -0.81860
O1968       O  0.57355909  0.74918380  0.48455891    -0.75420
Al1969     Al  0.54215354  0.66944536  0.50645516     1.90120
O1970       O  0.54298523  0.69239073  0.45254094    -0.74490
O1971       O  0.99925771  0.74202343  0.48673241    -0.74340
O1972       O  0.97541719  0.68528146  0.45199638    -0.80000
O1973       O  0.94664916  0.68961200  0.49411402    -0.78200
O1974       O  0.50878158  0.67992426  0.49270126    -1.14340
O1975       O  0.97576907  0.67650258  0.53121004    -0.73530
C1976       C  0.99124022  0.66362932  0.54492144     0.97180
C1977       C  0.56606846  0.68114461  0.45768922     0.93580
Al1978     Al  0.52204228  0.71516354  0.47090034     1.55560
O1979       O  0.01489845  0.61812097  0.49693809    -0.78150
C1980       C  0.96350104  0.72456876  0.49088612     0.97750
C1981       C  0.59065613  0.74496392  0.50226340     0.92630
O1982       O  0.57158288  0.71940983  0.51674598    -0.83470
O1983       O  0.83657114  0.99021194  0.29255537    -0.82930
C1984       C  0.84712030  0.55611212  0.38092264     0.96420
O1985       O  0.84708909  0.57181948  0.36197140    -0.72050
O1986       O  0.89950684  0.56748936  0.33866101    -0.75640
Al1987     Al  0.84943776  0.55511104  0.33116820     1.48980
C1988       C  0.91611103  0.55214100  0.32889657     0.91670
O1989       O  0.86307647  0.96523408  0.35196843    -0.81860
O1990       O  0.75840267  0.94314205  0.33990793    -0.75420
Al1991     Al  0.84806511  0.97906563  0.32338574     1.90120
O1992       O  0.81136322  0.95073023  0.37157794    -0.74490
O1993       O  0.77183870  0.51721902  0.35392544    -0.74340
O1994       O  0.82916283  0.52022308  0.38262366    -0.80000
O1995       O  0.80169637  0.54781717  0.32268979    -0.78200
O1996       O  0.83042774  0.50586004  0.33790136    -1.14340
O1997       O  0.85758366  0.55075151  0.29944905    -0.73530
C1998       C  0.85094733  0.52430224  0.28546996     0.97180
C1999       C  0.84125499  0.94880402  0.36893945     0.93580
Al2000     Al  0.79509248  0.98463664  0.35999204     1.55560
O2001       O  0.89796688  0.51890626  0.32090006    -0.78150
C2002       C  0.77846412  0.54263058  0.33851879     0.97750
C2003       C  0.76795868  0.92104400  0.32968095     0.92630
O2004       O  0.80174888  0.93347231  0.32329215    -0.83470
O2005       O  0.64352168  0.64365326  0.36661200    -0.82930
C2006       C  0.65384095  0.71070202  0.27906023     0.96420
O2007       O  0.65243137  0.72517889  0.29803588    -0.72050
O2008       O  0.59394771  0.66398387  0.31320217    -0.75640
Al2009     Al  0.63981067  0.69970881  0.32727451     1.48980
C2010       C  0.57476220  0.62980071  0.31953643     0.91670
O2011       O  0.63193629  0.59890281  0.30622558    -0.81860
O2012       O  0.73201922  0.67908707  0.32683017    -0.75420
Al2013     Al  0.63943583  0.62454494  0.33533625     1.90120
O2014       O  0.68663874  0.63816570  0.29024930    -0.74490
O2015       O  0.72220247  0.74180674  0.31300554    -0.74340
O2016       O  0.67175699  0.69253856  0.27828983    -0.80000
O2017       O  0.68452423  0.73808851  0.34126093    -0.78200
O2018       O  0.66052265  0.67045639  0.32246073    -1.14340
O2019       O  0.62112145  0.68136038  0.35759233    -0.73530
C2020       C  0.62715581  0.66197062  0.37245821     0.97180
C2021       C  0.65681984  0.60575577  0.29099594     0.93580
Al2022     Al  0.70051709  0.68713309  0.30375035     1.55560
O2023       O  0.58915297  0.61445176  0.33198942    -0.78150
C2024       C  0.71219506  0.75829717  0.32815010     0.97750
C2025       C  0.72010407  0.64690857  0.33704344     0.92630
O2026       O  0.68507751  0.62526503  0.34027500    -0.83470
O2027       O  0.97079792  0.63402749  0.12500223    -0.82930
C2028       C  0.54887215  0.69977108  0.20564306     0.96420
O2029       O  0.55150452  0.68532149  0.18686654    -0.72050
O2030       O  0.52988411  0.64228940  0.15044161    -0.75640
Al2031     Al  0.53181116  0.68867659  0.15801980     1.48980
C2032       C  0.50875814  0.60954732  0.15865685     0.91670
O2033       O  0.92046695  0.60312648  0.18475867    -0.81860
O2034       O  0.92039655  0.67205166  0.18031152    -0.75420
Al2035     Al  0.94923607  0.62401007  0.15634364     1.90120
O2036       O  0.95513733  0.64628228  0.21075486    -0.74490
O2037       O  0.99405879  0.73907486  0.17500266    -0.74340
O2038       O  0.52272650  0.70833600  0.20800579    -0.80000
O2039       O  0.54603296  0.73992509  0.16357945    -0.78200
O2040       O  0.98488948  0.66776282  0.16875030    -1.14340
O2041       O  0.51557332  0.69361364  0.12815481    -0.73530
C2042       C  0.99664428  0.66439042  0.11573071     0.97180
C2043       C  0.92956611  0.61276842  0.20578818     0.93580
Al2044     Al  0.97384797  0.69009528  0.19148558     1.55560
O2045       O  0.97541312  0.59871472  0.16513835    -0.78150
C2046       C  0.52877100  0.75746989  0.16848225     0.97750
C2047       C  0.90193007  0.65170121  0.16267216     0.92630
O2048       O  0.92009470  0.64601950  0.14703831    -0.83470
O2049       O  0.62167413  0.98356294  0.20283459    -0.82930
C2050       C  0.68722939  0.56461253  0.11856054     0.96420
O2051       O  0.69633623  0.57696569  0.13887196    -0.72050
O2052       O  0.63342256  0.56208000  0.15805133    -0.75640
Al2053     Al  0.67345858  0.55434179  0.16739775     1.48980
C2054       C  0.59968675  0.54261895  0.16486239     0.91670
O2055       O  0.57586833  0.96113733  0.14174399    -0.81860
O2056       O  0.65934045  0.94393305  0.15292063    -0.75420
Al2057     Al  0.60210385  0.97422009  0.17122354     1.90120
O2058       O  0.61951354  0.95920396  0.12021815    -0.74490
O2059       O  0.72018323  0.52027092  0.14706064    -0.74340
O2060       O  0.67327912  0.52948443  0.11468574    -0.80000
O2061       O  0.71666643  0.55176291  0.17706978    -0.78200
O2062       O  0.64775457  0.50548939  0.15838284    -1.14340
O2063       O  0.65705057  0.54538055  0.19839267    -0.73530
C2064       C  0.63950640  0.51686004  0.21135438     0.97180
C2065       C  0.58593323  0.95290025  0.12287303     0.93580
Al2066     Al  0.66689473  0.98955732  0.13594101     1.55560
O2067       O  0.58722187  0.51068789  0.17426436    -0.78150
C2068       C  0.73654102  0.54475554  0.16332548     0.97750
C2069       C  0.62794995  0.92006702  0.16251978     0.92630
O2070       O  0.60590596  0.93056372  0.17025849    -0.83470
O2071       O  0.62258758  0.66671510  0.96210317    -0.82930
C2072       C  0.69292643  0.67062085  0.04742851     0.96420
O2073       O  0.70710363  0.66997262  0.02811062    -0.72050
O2074       O  0.64771117  0.61425653  0.00989013    -0.75640
Al2075     Al  0.68269483  0.66190061  0.99834662     1.48980
C2076       C  0.61360698  0.59568808  0.00358324     0.91670
O2077       O  0.58334262  0.65267246  0.02359697    -0.81860
O2078       O  0.66325967  0.75426917  0.00329366    -0.75420
Al2079     Al  0.60666307  0.66158915  0.99376455     1.90120
O2080       O  0.62326886  0.70766492  0.03908170    -0.74490
O2081       O  0.72589971  0.74249253  0.01639975    -0.74340
O2082       O  0.67624294  0.68991609  0.04925691    -0.80000
O2083       O  0.72105936  0.70805857  0.98621091    -0.78200
O2084       O  0.65354173  0.68192791  0.00541036    -1.14340
O2085       O  0.66433248  0.64784380  0.96742744    -0.73530
C2086       C  0.64240863  0.65320051  0.95427102     0.97180
C2087       C  0.59076723  0.67812736  0.03859036     0.93580
Al2088     Al  0.67133272  0.72097632  0.02524216     1.55560
O2089       O  0.59657780  0.61153589  0.99472482    -0.78150
C2090       C  0.74190330  0.73331533  0.00058547     0.97750
C2091       C  0.63039669  0.74281836  0.99384427     0.92630
O2092       O  0.60790267  0.70778799  0.99086341    -0.83470
O2093       O  0.97030497  0.86091094  0.03314732    -0.82930
C2094       C  0.53811058  0.86728318  0.94612685     0.96420
O2095       O  0.55274762  0.86718742  0.96546072    -0.72050
O2096       O  0.54409753  0.91961052  0.98503222    -0.75640
Al2097     Al  0.53525218  0.87214596  0.99521507     1.48980
C2098       C  0.52794639  0.93653275  0.99334769     0.91670
O2099       O  0.94021182  0.87771989  0.97239910    -0.81860
O2100       O  0.92537597  0.77725256  0.98737143    -0.75420
Al2101     Al  0.95732139  0.86755126  0.00160471     1.90120
O2102       O  0.93112282  0.82672129  0.95398321    -0.74490
O2103       O  0.00063260  0.79321545  0.97510268    -0.74340
O2104       O  0.50223509  0.84793791  0.94374851    -0.80000
O2105       O  0.53105443  0.82627973  0.00584520    -0.78200
O2106       O  0.98577055  0.85049894  0.98829591    -1.14340
O2107       O  0.53085695  0.88385238  0.02616500    -0.73530
C2108       C  0.00460656  0.87779050  0.04005102     0.97180
C2109       C  0.92494408  0.85419642  0.95592816     0.93580
Al2110     Al  0.96648383  0.81378953  0.96695165     1.55560
O2111       O  0.99539362  0.91855610  0.00207197    -0.78150
C2112       C  0.52599765  0.80148555  0.99091922     0.97750
C2113       C  0.90292767  0.78612753  0.99782136     0.92630
O2114       O  0.91402616  0.82007505  0.00334389    -0.83470
O2115       O  0.64260499  0.54036316  0.79448610    -0.82930
C2116       C  0.64598301  0.97521380  0.88003585     0.96420
O2117       O  0.64592291  0.96008417  0.86095376    -0.72050
O2118       O  0.59017177  0.96402239  0.84249316    -0.75640
Al2119     Al  0.63746911  0.97593351  0.83115939     1.48980
C2120       C  0.57140653  0.97929667  0.83577414     0.91670
O2121       O  0.62718098  0.56536612  0.85598427    -0.81860
O2122       O  0.72905632  0.58701103  0.83571290    -0.75420
Al2123     Al  0.63676372  0.55136916  0.82605539     1.90120
O2124       O  0.68280314  0.58178304  0.87151560    -0.74490
O2125       O  0.71790203  0.51364615  0.84931766    -0.74340
O2126       O  0.66487574  0.51116107  0.88210963    -0.80000
O2127       O  0.68341523  0.98320830  0.81911840    -0.78200
O2128       O  0.65729127  0.52510830  0.83799678    -1.14340
O2129       O  0.62345022  0.97983191  0.80036507    -0.73530
C2130       C  0.62940096  0.50683429  0.78691270     0.97180
C2131       C  0.65228958  0.58312321  0.87134545     0.93580
Al2132     Al  0.69617029  0.54665857  0.85795566     1.55560
O2133       O  0.58698501  0.51144255  0.82632431    -0.78150
C2134       C  0.70954794  0.98888675  0.83323389     0.97750
C2135       C  0.71756294  0.60822410  0.82599040     0.92630
O2136       O  0.68256329  0.59631787  0.82347202    -0.83470
C2137       C  0.60213504  0.89981399  0.92732246    -0.10290
C2138       C  0.56416598  0.89245304  0.92750450     0.05900
C2139       C  0.55450125  0.91443755  0.91272870    -0.04060
C2140       C  0.58241505  0.94296208  0.89858723    -0.08510
C2141       C  0.62013584  0.95006005  0.89845745     0.05020
C2142       C  0.62971677  0.92781507  0.91276353    -0.03530
Br2143     Br  0.68027339  0.93512105  0.91296542    -0.03230
H2144       H  0.61053847  0.88385298  0.93874154     0.08930
H2145       H  0.57439799  0.95938876  0.88732702     0.06950
Br2146     Br  0.00439645  0.90848321  0.91182928    -0.03660
C2147       C  0.61193270  0.58902371  0.90187827    -0.10290
C2148       C  0.64635361  0.60542360  0.88957436     0.05900
C2149       C  0.67608886  0.64157411  0.89654907    -0.04060
C2150       C  0.67256282  0.65896979  0.91654167    -0.08510
C2151       C  0.63954959  0.64117472  0.92990608     0.05020
C2152       C  0.60849422  0.60646864  0.92209685    -0.03530
Br2153     Br  0.56288880  0.57945918  0.94006451    -0.03230
H2154       H  0.58872316  0.56133009  0.89677819     0.08930
H2155       H  0.69668694  0.68546763  0.92250843     0.06950
Br2156     Br  0.72270179  0.66860278  0.87996085    -0.03660
C2157       C  0.58939353  0.80814252  0.00264294    -0.10290
C2158       C  0.55472534  0.78810361  0.98985804     0.05900
C2159       C  0.55136635  0.75968543  0.97431991    -0.04060
C2160       C  0.58017622  0.75008623  0.97331312    -0.08510
C2161       C  0.61269495  0.76694614  0.98807171     0.05020
C2162       C  0.61826430  0.79822081  0.00161914    -0.03530
Br2163     Br  0.66420918  0.82783754  0.01926441    -0.03230
H2164       H  0.59430638  0.83188320  0.01361498     0.08930
H2165       H  0.57541304  0.72664154  0.96207945     0.06950
Br2166     Br  0.50732970  0.73061136  0.95493330    -0.03660
C2167       C  0.84508223  0.76834048  0.02091485    -0.10290
C2168       C  0.86113517  0.76041775  0.00144916     0.05900
C2169       C  0.83671879  0.74150208  0.98249551    -0.04060
C2170       C  0.79897074  0.73466199  0.98227402    -0.08510
C2171       C  0.78379321  0.74553190  0.00098235     0.05020
C2172       C  0.80733907  0.76128452  0.02089344    -0.03530
Br2173     Br  0.79059223  0.77426583  0.04882605    -0.03230
H2174       H  0.86318038  0.78307271  0.03573013     0.08930
H2175       H  0.78136923  0.72066796  0.96717177     0.06950
Br2176     Br  0.85398771  0.72590577  0.95597150    -0.03660
C2177       C  0.58904886  0.99516881  0.99523607    -0.10290
C2178       C  0.54919796  0.97749788  0.99570854     0.05900
C2179       C  0.53133257  0.99860586  0.00156873    -0.04060
C2180       C  0.55365883  0.53691935  0.00626832    -0.08510
C2181       C  0.59330528  0.55478054  0.00470391     0.05020
C2182       C  0.61133343  0.53362165  0.99978089    -0.03530
Br2183     Br  0.66556455  0.55503928  0.99735666    -0.03230
H2184       H  0.60315353  0.97900823  0.99152502     0.08930
H2185       H  0.53983210  0.55332856  0.01011432     0.06950
Br2186     Br  0.97714780  0.97856681  0.00260881    -0.03660
C2187       C  0.70860530  0.62148892  0.06200607    -0.10290
C2188       C  0.69410028  0.64617846  0.06679726     0.05900
C2189       C  0.67780431  0.64341699  0.08892946    -0.04060
C2190       C  0.67661999  0.61701129  0.10530108    -0.08510
C2191       C  0.69033985  0.59202862  0.10020861     0.05020
C2192       C  0.70652399  0.59451190  0.07830426    -0.03530
Br2193     Br  0.72721161  0.56261909  0.07013416    -0.03230
H2194       H  0.72096713  0.62239333  0.04519955     0.08930
H2195       H  0.66387052  0.61533051  0.12209820     0.06950
Br2196     Br  0.65539729  0.67345645  0.09814777    -0.03660
C2197       C  0.54758364  0.93517658  0.06154838    -0.10290
C2198       C  0.51721684  0.89760774  0.06272427     0.05900
C2199       C  0.50517090  0.88035742  0.08469900    -0.04060
C2200       C  0.52613223  0.89978392  0.10483308    -0.08510
C2201       C  0.55900455  0.93612603  0.10305914     0.05020
C2202       C  0.56872273  0.95406274  0.08113917    -0.03530
Br2203     Br  0.61202121  0.00347819  0.07600295    -0.03230
H2204       H  0.55662938  0.94929458  0.04480946     0.08930
H2205       H  0.51823624  0.88557630  0.12157135     0.06950
Br2206     Br  0.96262033  0.82986716  0.08755439    -0.03660
C2207       C  0.53294751  0.63737040  0.06263501    -0.10290
C2208       C  0.56127848  0.67387567  0.05550148     0.05900
C2209       C  0.56094901  0.70587749  0.06494983    -0.04060
C2210       C  0.53544095  0.70124880  0.08244958    -0.08510
C2211       C  0.51038038  0.66524765  0.09170208     0.05020
C2212       C  0.50756271  0.63275115  0.08058743    -0.03530
Br2213     Br  0.47162277  0.58153606  0.08970742    -0.03230
H2214       H  0.53168968  0.61230674  0.05503343     0.08930
H2215       H  0.53732254  0.72655700  0.09013933     0.06950
Br2216     Br  0.59485746  0.75729517  0.05569451    -0.03660
C2217       C  0.79479737  0.60507051  0.17682340    -0.10290
C2218       C  0.77930274  0.56998434  0.16462762     0.05900
C2219       C  0.80476321  0.56314221  0.15171961    -0.04060
C2220       C  0.84356555  0.59095557  0.15063421    -0.08510
C2221       C  0.85909766  0.62618192  0.16261708     0.05020
C2222       C  0.83390907  0.63268142  0.17603205    -0.03530
Br2223     Br  0.85075124  0.67949663  0.19256557    -0.03230
H2224       H  0.77618312  0.61180274  0.18663424     0.08930
H2225       H  0.86198533  0.58412681  0.14070714     0.06950
Br2226     Br  0.78915167  0.01579935  0.13596536    -0.03660
C2227       C  0.58066334  0.81872709  0.18463521    -0.10290
C2228       C  0.55230122  0.79986226  0.16742191     0.05900
C2229       C  0.55460974  0.81999071  0.14689202    -0.04060
C2230       C  0.58330848  0.85840819  0.14436585    -0.08510
C2231       C  0.61086242  0.87785855  0.16195468     0.05020
C2232       C  0.60916217  0.85730502  0.18220713    -0.03530
Br2233     Br  0.64493726  0.88142691  0.20713181    -0.03230
H2234       H  0.58083532  0.80319904  0.20002417     0.08930
H2235       H  0.58278576  0.87387669  0.12903640     0.06950
Br2236     Br  0.01906211  0.79573672  0.12186402    -0.03660
C2237       C  0.56462838  0.56866504  0.18345989    -0.10290
C2238       C  0.57439316  0.55741064  0.16299755     0.05900
C2239       C  0.55776455  0.55780999  0.14160453    -0.04060
C2240       C  0.53311243  0.57216962  0.14068974    -0.08510
C2241       C  0.52461030  0.58509281  0.16101303     0.05020
C2242       C  0.53971376  0.58261297  0.18258896    -0.03530
Br2243     Br  0.53040788  0.60120885  0.21081121    -0.03230
H2244       H  0.57726418  0.56755971  0.20001068     0.08930
H2245       H  0.52192612  0.57486595  0.12397144     0.06950
Br2246     Br  0.56785304  0.53925003  0.11354412    -0.03660
C2247       C  0.60759082  0.69954767  0.21918212    -0.10290
C2248       C  0.57752154  0.70656846  0.22434123     0.05900
C2249       C  0.57565604  0.71855071  0.24708963    -0.04060
C2250       C  0.60212500  0.72146372  0.26398682    -0.08510
C2251       C  0.63093903  0.71253721  0.25910623     0.05020
C2252       C  0.63390239  0.70225218  0.23615846    -0.03530
Br2253     Br  0.67304941  0.69170248  0.22660185    -0.03230
H2254       H  0.61047140  0.69109414  0.20178931     0.08930
H2255       H  0.59899559  0.72943429  0.28146472     0.06950
Br2256     Br  0.53727586  0.73004386  0.25701154    -0.03660
C2257       C  0.61415411  0.55088017  0.26499047    -0.10290
C2258       C  0.65095544  0.57577244  0.27374096     0.05900
C2259       C  0.68167701  0.57246433  0.26492355    -0.04060
C2260       C  0.67585284  0.54738983  0.24663919    -0.08510
C2261       C  0.63989499  0.52551403  0.23630889     0.05020
C2262       C  0.60854663  0.52623096  0.24627324    -0.03530
Br2263     Br  0.55853665  0.49805296  0.23283978    -0.03230
H2264       H  0.59001890  0.55251957  0.27156281     0.08930
H2265       H  0.70036217  0.54771788  0.23891150     0.06950
Br2266     Br  0.73283621  0.60229673  0.27607935    -0.03660
C2267       C  0.90892539  0.56093006  0.26364123    -0.10290
C2268       C  0.86935381  0.53690672  0.26260639     0.05900
C2269       C  0.84987118  0.53513107  0.24186758    -0.04060
C2270       C  0.87023270  0.55838573  0.22283819    -0.08510
C2271       C  0.90958694  0.58497356  0.22478696     0.05020
C2272       C  0.92879680  0.58569783  0.24556517    -0.03530
Br2273     Br  0.98145533  0.62143015  0.25176624    -0.03230
H2274       H  0.92415827  0.56298147  0.27960407     0.08930
H2275       H  0.85486093  0.55752124  0.20711467     0.06950
Br2276     Br  0.79561516  0.00415224  0.23971480    -0.03660
C2277       C  0.71819504  0.81711213  0.34713732    -0.10290
C2278       C  0.72673042  0.80066389  0.32805864     0.05900
C2279       C  0.74207684  0.82361086  0.30797413    -0.04060
C2280       C  0.75006480  0.86167841  0.30784356    -0.08510
C2281       C  0.74352908  0.87870420  0.32735728     0.05020
C2282       C  0.72632342  0.85532643  0.34693643    -0.03530
Br2283     Br  0.71564792  0.87465973  0.37457243    -0.03230
H2284       H  0.70514656  0.80012804  0.36253348     0.08930
H2285       H  0.76387824  0.87905663  0.29268753     0.06950
Br2286     Br  0.75269670  0.80536030  0.27978504    -0.03660
C2287       C  0.72713000  0.59632532  0.35742547    -0.10290
C2288       C  0.74390969  0.62898281  0.34286706     0.05900
C2289       C  0.77516799  0.63482203  0.32933708    -0.04060
C2290       C  0.78522933  0.60618240  0.32815921    -0.08510
C2291       C  0.76533842  0.57138039  0.34064899     0.05020
C2292       C  0.73709251  0.56771799  0.35628488    -0.03530
Br2293     Br  0.70887072  0.52344442  0.37540683    -0.03230
H2294       H  0.70360208  0.59132878  0.36855983     0.08930
H2295       H  0.80878608  0.61126616  0.31704769     0.06950
Br2296     Br  0.80383986  0.68008084  0.31107229    -0.03660
C2297       C  0.97525789  0.55167801  0.32336736    -0.10290
C2298       C  0.95675066  0.57299414  0.32502313     0.05900
C2299       C  0.97626498  0.61211680  0.31951493    -0.04060
C2300       C  0.51488543  0.62986198  0.31473212    -0.08510
C2301       C  0.53402939  0.60903023  0.31549019     0.05020
C2302       C  0.51348998  0.56919282  0.31812716    -0.03530
Br2303     Br  0.53575019  0.53707838  0.31522639    -0.03230
H2304       H  0.95992675  0.52113772  0.32626361     0.08930
H2305       H  0.53038478  0.66045318  0.31211393     0.06950
Br2306     Br  0.95232955  0.64281656  0.31761497    -0.03660
C2307       C  0.90061487  0.63806625  0.42356649    -0.10290
C2308       C  0.92689912  0.62856295  0.43303372     0.05900
C2309       C  0.92613014  0.59512937  0.42536584    -0.04060
C2310       C  0.89842189  0.57100772  0.40941751    -0.08510
C2311       C  0.87182185  0.58007157  0.40012206     0.05020
C2312       C  0.87346353  0.61433362  0.40696643    -0.03530
Br2313     Br  0.83803911  0.62876928  0.39501854    -0.03230
H2314       H  0.90050060  0.66335620  0.42956993     0.08930
H2315       H  0.89861988  0.54572108  0.40350534     0.06950
Br2316     Br  0.96390369  0.58230654  0.43485162    -0.03660
C2317       C  0.55929788  0.65549046  0.41843356    -0.10290
C2318       C  0.58272212  0.67080230  0.43804784     0.05900
C2319       C  0.62062233  0.67792127  0.43706749    -0.04060
C2320       C  0.63485141  0.67239726  0.41591467    -0.08510
C2321       C  0.61138476  0.65918293  0.39596771     0.05020
C2322       C  0.57287460  0.64914740  0.39789409    -0.03530
Br2323     Br  0.53680052  0.62755310  0.37293848    -0.03230
H2324       H  0.53011560  0.64951779  0.41873878     0.08930
H2325       H  0.66460674  0.68042390  0.41471680     0.06950
Br2326     Br  0.65481793  0.69840784  0.46307238    -0.03660
C2327       C  0.88603257  0.92308701  0.41883884    -0.10290
C2328       C  0.85421903  0.88933601  0.42662558     0.05900
C2329       C  0.82124861  0.87201003  0.41265527    -0.04060
C2330       C  0.81883028  0.89052423  0.39266083    -0.08510
C2331       C  0.84917634  0.92623160  0.38609179     0.05020
C2332       C  0.88382802  0.94151686  0.39857181    -0.03530
Br2333     Br  0.92698511  0.98971307  0.39052976    -0.03230
H2334       H  0.91142150  0.93695792  0.42963958     0.08930
H2335       H  0.79238798  0.87791044  0.38286042     0.06950
Br2336     Br  0.77806914  0.82418028  0.42112747    -0.03660
C2337       C  0.69121389  0.76265369  0.51651804    -0.10290
C2338       C  0.71303771  0.78785089  0.49879006     0.05900
C2339       C  0.69447294  0.80212851  0.48391254    -0.04060
C2340       C  0.65539766  0.78935394  0.48619518    -0.08510
C2341       C  0.63343882  0.76355246  0.50359682     0.05020
C2342       C  0.65247406  0.75099296  0.51935243    -0.03530
Br2343     Br  0.62882042  0.71794315  0.54560370    -0.03230
H2344       H  0.70461189  0.75247000  0.52878660     0.08930
H2345       H  0.64196238  0.79956892  0.47397955     0.06950
Br2346     Br  0.71944075  0.84053406  0.46043823    -0.03660
C2347       C  0.87701298  0.74002183  0.49526917    -0.10290
C2348       C  0.89483197  0.77966226  0.49594126     0.05900
C2349       C  0.93585776  0.80078970  0.49459986    -0.04060
C2350       C  0.95694863  0.78224824  0.49281476    -0.08510
C2351       C  0.93931724  0.74287793  0.49209627     0.05020
C2352       C  0.89844046  0.72149305  0.49300800    -0.03530
Br2353     Br  0.86842540  0.66686443  0.49025977    -0.03230
H2354       H  0.84622689  0.72334097  0.49599578     0.08930
H2355       H  0.98775788  0.79898379  0.49216523     0.06950
Br2356     Br  0.96810328  0.85551913  0.49557045    -0.03660
C2357       C  0.94005943  0.99560179  0.51489853    -0.10290
C2358       C  0.90555363  0.98219473  0.50272038     0.05900
C2359       C  0.89848495  0.00590049  0.48845308    -0.04060
C2360       C  0.92601940  0.54349859  0.48686500    -0.08510
C2361       C  0.96049671  0.55737368  0.49911688     0.05020
C2362       C  0.96784946  0.53353836  0.51319854    -0.03530
Br2363     Br  0.51358097  0.55209684  0.53146082    -0.03230
H2364       H  0.94553074  0.97631511  0.52523176     0.08930
H2365       H  0.91959528  0.56230690  0.47689868     0.06950
Br2366     Br  0.85314699  0.98797256  0.46972385    -0.03660
C2367       C  0.78090332  0.90405364  0.60195927    -0.10290
C2368       C  0.79345457  0.94285478  0.59697711     0.05900
C2369       C  0.80714719  0.95612736  0.57426728    -0.04060
C2370       C  0.80831874  0.93132755  0.55771653    -0.08510
C2371       C  0.79726143  0.89324868  0.56307350     0.05020
C2372       C  0.78328684  0.87964070  0.58547977    -0.03530
Br2373     Br  0.76591902  0.82772544  0.59405895    -0.03230
H2374       H  0.76987709  0.89261479  0.61902555     0.08930
H2375       H  0.81900951  0.94237114  0.54052838     0.06950
Br2376     Br  0.82556219  0.50766026  0.56423080    -0.03660
C2377       C  0.93468548  0.64189389  0.56922462    -0.10290
C2378       C  0.97156974  0.64725164  0.56738720     0.05900
C2379       C  0.98387008  0.63030237  0.58442791    -0.04060
C2380       C  0.95896682  0.60821376  0.60240241    -0.08510
C2381       C  0.92120317  0.60123873  0.60319082     0.05020
C2382       C  0.90925051  0.61814362  0.58581731    -0.03530
Br2383     Br  0.85795573  0.60833471  0.58097116    -0.03230
H2384       H  0.92386477  0.65382750  0.55635075     0.08930
H2385       H  0.96896194  0.59583147  0.61548985     0.06950
Br2386     Br  0.53382450  0.63602243  0.58414819    -0.03660
C2387       C  0.95938537  0.90007185  0.59621780    -0.10290
C2388       C  0.97556517  0.87638523  0.59756003     0.05900
C2389       C  0.97294297  0.85400313  0.57830266    -0.04060
C2390       C  0.95227886  0.85376429  0.55855271    -0.08510
C2391       C  0.93456554  0.87608451  0.55763969     0.05020
C2392       C  0.93883555  0.89995538  0.57646309    -0.03530
Br2393     Br  0.91258711  0.92849704  0.57720251    -0.03230
H2394       H  0.96013553  0.91641212  0.61132896     0.08930
H2395       H  0.94803698  0.83428655  0.54450584     0.06950
Br2396     Br  0.49411008  0.82089832  0.57925187    -0.03660
C2397       C  0.64164064  0.92962192  0.64320029    -0.10290
C2398       C  0.62635857  0.89679685  0.65759082     0.05900
C2399       C  0.65212605  0.89124105  0.67132938    -0.04060
C2400       C  0.69066474  0.92030597  0.67277843    -0.08510
C2401       C  0.70459077  0.95535755  0.66063776     0.05020
C2402       C  0.67943663  0.95906341  0.64518089    -0.03530
Br2403     Br  0.69316893  0.50470770  0.62768721    -0.03230
H2404       H  0.62291916  0.93441142  0.63183304     0.08930
H2405       H  0.70970738  0.91547873  0.68378451     0.06950
Br2406     Br  0.63598505  0.84588832  0.68946741    -0.03660
C2407       C  0.90106411  0.66406561  0.68864054    -0.10290
C2408       C  0.87429213  0.64797193  0.67027069     0.05900
C2409       C  0.87681270  0.67236340  0.65196063    -0.04060
C2410       C  0.90730929  0.71021923  0.65113407    -0.08510
C2411       C  0.93592533  0.72554346  0.66864699     0.05020
C2412       C  0.93136031  0.70191728  0.68806573    -0.03530
Br2413     Br  0.96538442  0.71832929  0.71443127    -0.03230
H2414       H  0.90007625  0.64594834  0.70290252     0.08930
H2415       H  0.90844790  0.72779735  0.63653652     0.06950
Br2416     Br  0.84017097  0.65505678  0.62715478    -0.03660
C2417       C  0.89557894  0.89502550  0.66490539    -0.10290
C2418       C  0.93380676  0.91494267  0.67161990     0.05900
C2419       C  0.95232199  0.95413397  0.67610845    -0.04060
C2420       C  0.93285835  0.97342693  0.67231285    -0.08510
C2421       C  0.89485893  0.95404489  0.66456852     0.05020
C2422       C  0.87575619  0.91413332  0.66127450    -0.03530
Br2423     Br  0.82343278  0.88293423  0.65183838    -0.03230
H2424       H  0.88153460  0.86469290  0.66136485     0.08930
H2425       H  0.94771746  0.50381123  0.67567437     0.06950
Br2426     Br  0.50363441  0.98295235  0.68771576    -0.03660
C2427       C  0.56607540  0.96988767  0.73454073    -0.10290
C2428       C  0.58029753  0.94780403  0.72465547     0.05900
C2429       C  0.61550808  0.95283033  0.73278951    -0.04060
C2430       C  0.63430352  0.97729064  0.75133659    -0.08510
C2431       C  0.61844797  0.99664467  0.76251264     0.05020
C2432       C  0.58465862  0.99389290  0.75355441    -0.03530
Br2433     Br  0.56004509  0.01787129  0.76872889    -0.03230
H2434       H  0.53902972  0.96631194  0.72867161     0.08930
H2435       H  0.65987138  0.97864987  0.75841348     0.06950
Br2436     Br  0.63904775  0.92603036  0.72041401    -0.03660
C2437       C  0.87908274  0.89075915  0.91159465    -0.10290
C2438       C  0.85569030  0.85684189  0.89934812     0.05900
C2439       C  0.85050588  0.82224241  0.90856916    -0.04060
C2440       C  0.87172187  0.82248790  0.92782639    -0.08510
C2441       C  0.89847264  0.85661339  0.93864803     0.05020
C2442       C  0.90029460  0.89088635  0.93124495    -0.03530
Br2443     Br  0.93367692  0.93902189  0.94548311    -0.03230
H2444       H  0.88355261  0.91764645  0.90469405     0.08930
H2445       H  0.86847097  0.79559234  0.93367292     0.06950
Br2446     Br  0.81721484  0.77366222  0.89439904    -0.03660
C2447       C  0.78203447  0.71387287  0.83344264    -0.10290
C2448       C  0.76164872  0.72772329  0.82018973     0.05900
C2449       C  0.73428119  0.70247104  0.80417015    -0.04060
C2450       C  0.72528848  0.66417336  0.80355212    -0.08510
C2451       C  0.74188853  0.64923724  0.81921237     0.05020
C2452       C  0.77264375  0.67535806  0.83296460    -0.03530
Br2453     Br  0.80023734  0.65960436  0.85317591    -0.03230
H2454       H  0.80508845  0.73288790  0.84484352     0.08930
H2455       H  0.70220417  0.64496728  0.79218207     0.06950
Br2456     Br  0.70585321  0.71719263  0.78391604    -0.03660
C2457       C  0.51315705  0.91798089  0.83609634    -0.10290
C2458       C  0.53060273  0.95782077  0.83642303     0.05900
C2459       C  0.50891797  0.97603956  0.83392447    -0.04060
C2460       C  0.97051990  0.95413356  0.82975935    -0.08510
C2461       C  0.95301677  0.91436110  0.82941922     0.05020
C2462       C  0.97432236  0.89594784  0.83275861    -0.03530
Br2463     Br  0.95267832  0.84157221  0.83433726    -0.03230
H2464       H  0.52979892  0.90384743  0.83796597     0.08930
H2465       H  0.95396265  0.96833077  0.82756801     0.06950
Br2466     Br  0.52872694  0.53008587  0.83706476    -0.03660
C2467       C  0.70738211  0.92963223  0.81745759    -0.10290
C2468       C  0.72437069  0.96124439  0.83290741     0.05900
C2469       C  0.75068338  0.96199856  0.84943343    -0.04060
C2470       C  0.75949346  0.93254490  0.85001821    -0.08510
C2471       C  0.74461867  0.90234033  0.83358363     0.05020
C2472       C  0.71733446  0.90075818  0.81757588    -0.03530
Br2473     Br  0.69393577  0.86097343  0.79484783    -0.03230
H2474       H  0.68614929  0.92724284  0.80494122     0.08930
H2475       H  0.78069504  0.93495995  0.86259427     0.06950
Br2476     Br  0.77802920  0.50347974  0.87079571    -0.03660
C2477       C  0.90009439  0.81583750  0.76995435    -0.10290
C2478       C  0.86867378  0.81904598  0.76194745     0.05900
C2479       C  0.86387833  0.82102337  0.73777935    -0.04060
C2480       C  0.88950667  0.81888632  0.72239142    -0.08510
C2481       C  0.92123898  0.81626828  0.73044052     0.05020
C2482       C  0.92644025  0.81504079  0.75458942    -0.03530
Br2483     Br  0.96793666  0.81073515  0.76760351    -0.03230
H2484       H  0.90465738  0.81448167  0.78844224     0.08930
H2485       H  0.88479094  0.81997247  0.70389829     0.06950
Br2486     Br  0.82259432  0.82558253  0.72462607    -0.03660
C2487       C  0.82155989  0.96720073  0.76947591    -0.10290
C2488       C  0.84863854  0.95554707  0.77299408     0.05900
C2489       C  0.87958843  0.96852334  0.75766001    -0.04060
C2490       C  0.88159644  0.99070313  0.73827123    -0.08510
C2491       C  0.85285508  0.99983189  0.73378784     0.05020
C2492       C  0.82347659  0.48911631  0.75002990    -0.03530
Br2493     Br  0.78351683  0.50080385  0.74499120    -0.03230
H2494       H  0.79751781  0.95722213  0.78112886     0.08930
H2495       H  0.90358557  0.99756645  0.72543589     0.06950
Br2496     Br  0.91611648  0.95158006  0.76041676    -0.03660
loop_ 
_geom_bond_atom_site_label_1 
_geom_bond_atom_site_label_2 
_geom_bond_distance 
_geom_bond_site_symmetry_2 
_ccdc_geom_bond_type 
O1           C16   1.266       .  A
O1           Al9   1.932       .  S
C2           O12   1.268       .  A
C2            O3   1.256       .  A
C2          C606   1.493       .  S
O3           Al5   1.902       .  S
O4            C6   1.252       .  A
O4           Al5   1.856       .  S
Al5          O13   1.862       .  S
Al5          O15   1.880       .  S
Al5          O14   1.778       .  S
C6           O19   1.255       .  A
C6          C589   1.431       .  S
O7           C17   1.263       .  A
O7           Al9   1.920       .  S
O8           C21   1.287       .  A
O8          Al18   1.983       .  S
Al9          O22   1.843       .  S
Al9          O19   1.849       .  S
Al9          O14   1.775       .  S
O10          C17   1.261       .  A
O10         Al18   1.911       .  S
O11          C20   1.280       .  A
O11         Al18   2.001       .  S
O12         Al18   1.948       .  S
O13          C20   1.253       .  A
O14         Al18   1.786       .  S
O15          C16   1.256       .  A
C16         C566   1.479       .  S
C17         C616   1.475       .  S
C20         C576   1.506       .  S
C21          O22   1.255       .  A
C21         C599   1.507       .  S
O23        C1286   1.260   1_455  A
O23         Al31   1.909       .  S
C24          O34   1.269       .  A
C24          O25   1.258       .  A
C24         C609   1.492       .  S
O25         Al27   1.906       .  S
O26          C28   1.251       .  A
O26         Al27   1.847       .  S
Al27         O35   1.879       .  S
Al27         O37   1.894       .  S
Al27       O1284   1.782       .  S
C28          O41   1.252       .  A
C28         C546   1.426       .  S
O29          C39   1.257       .  A
O29         Al31   1.903       .  S
O30          C43   1.286       .  A
O30         Al40   1.979       .  S
Al31         O44   1.840       .  S
Al31       O1289   1.854   1_455  S
Al31         O36   1.775       .  S
O32          C39   1.261       .  A
O32         Al40   1.921       .  S
O33          C42   1.277       .  A
O33       Al1288   1.987       .  S
O34       Al1288   1.946       .  S
O35          C42   1.259       .  A
O36         Al40   1.785       .  S
O36       Al1275   1.782   1_455  S
O37          C38   1.257       .  A
C38        O1271   1.260       .  A
C38         C516   1.466       .  S
C39         C556   1.481       .  S
Al40       O1281   1.987   1_455  S
Al40       O1282   1.946   1_455  S
O41       Al1279   1.854       .  S
C42         C539   1.512       .  S
C43          O44   1.257       .  A
C43         C526   1.501       .  S
O45          C60   1.264       .  A
O45         Al53   1.918       .  S
C46          O47   1.263       .  A
C46         O680   1.267       .  A
C46         C496   1.507       .  S
O47         Al49   1.923       .  S
O48          C50   1.246       .  A
O48         Al49   1.843       .  S
Al49         O57   1.872       .  S
Al49         O59   1.895       .  S
Al49        O682   1.785       .  S
C50         O687   1.254       .  A
C50         C549   1.444       .  S
O51          C61   1.264       .  A
O51         Al53   1.932       .  S
O52          C65   1.286       .  A
O52         Al62   1.974       .  S
Al53         O66   1.860       .  S
Al53         O63   1.852       .  S
Al53         O58   1.784       .  S
O54          C61   1.254       .  A
O54         Al62   1.883       .  S
O55         C688   1.271   1_545  A
O55         Al62   1.963       .  S
O56         C670   1.267   1_545  A
O56         Al62   1.935       .  S
O57          C64   1.254       .  A
O58         Al62   1.780       .  S
O58        Al673   1.785   1_545  S
O59         C684   1.259       .  A
C60         O683   1.259   1_545  A
C60        C1243   1.472   1_545  S
C61         C509   1.490       .  S
O63         C674   1.254   1_545  A
C64         O679   1.271       .  A
C64         C529   1.501       .  S
C65          O66   1.258       .  A
C65         C536   1.496       .  S
O67          C82   1.262       .  A
O67         Al75   1.912       .  S
C68          O78   1.266       .  A
C68          O69   1.257       .  A
C68         C499   1.492       .  S
O69         Al71   1.906       .  S
O70          C72   1.251       .  A
O70         Al71   1.861       .  S
Al71         O79   1.865       .  S
Al71         O81   1.903       .  S
Al71         O80   1.782       .  S
C72          O85   1.245       .  A
C72         C486   1.408       .  S
O73          C83   1.263       .  A
O73         Al75   1.916       .  S
O74          C87   1.288       .  A
O74         Al84   1.995       .  S
Al75         O88   1.803       .  S
Al75         O85   1.824       .  S
Al75         O80   1.778       .  S
O76          C83   1.260       .  A
O76         Al84   1.906       .  S
O77          C86   1.281       .  A
O77         Al84   1.992       .  S
O78         Al84   1.944       .  S
O79          C86   1.252       .  A
O80         Al84   1.791       .  S
O81          C82   1.260       .  A
C82         C456   1.471       .  S
C83         C519   1.469       .  S
C86         C466   1.509       .  S
C87          O88   1.238       .  A
C87         C476   1.502       .  S
O89        C1352   1.275   1_455  A
O89         Al97   1.978       .  S
C90         O100   1.278       .  A
C90          O91   1.262       .  A
C90         C436   1.476       .  S
O91         Al93   1.876       .  S
O92          C94   1.248       .  A
O92         Al93   1.853       .  S
Al93        O101   1.841       .  S
Al93        O103   1.877       .  S
Al93       O1350   1.752       .  S
C94         O107   1.255       .  A
C94         C489   1.417       .  S
O95         C105   1.267       .  A
O95         Al97   1.954       .  S
O96         C109   1.283       .  A
O96        Al106   1.995       .  S
Al97        O110   1.859       .  S
Al97       O1355   1.883       .  S
Al97        O102   1.783       .  S
O98         C105   1.259       .  A
O98        Al106   1.866       .  S
O99         C108   1.279       .  A
O99       Al1354   1.970       .  S
O100      Al1354   1.976       .  S
O101        C108   1.240       .  A
O102       Al106   1.766       .  S
O102      Al1341   1.752   1_455  S
O103        C104   1.263       .  A
C104       O1337   1.275       .  A
C104        C506   1.490       .  S
C105        C446   1.483       .  S
Al106      O1347   1.970   1_455  S
Al106      O1348   1.976   1_455  S
O107      Al1345   1.883       .  S
C108        C479   1.496       .  S
C109        O110   1.251       .  A
C109        C469   1.507       .  S
O111        C750   1.267       .  A
O111       Al119   1.934       .  S
C112        O122   1.263       .  A
C112        O113   1.258       .  A
C112        C439   1.477       .  S
O113       Al115   1.916       .  S
O114        C116   1.256       .  A
O114       Al115   1.876       .  S
Al115       O123   1.865       .  S
Al115       O125   1.878       .  S
Al115       O124   1.784       .  S
C116        O129   1.255       .  A
C116        C426   1.446       .  S
O117        C127   1.263       .  A
O117       Al119   1.920       .  S
O118        C131   1.284       .  A
O118       Al128   1.964       .  S
Al119       O132   1.864       .  S
Al119       O753   1.860       .  S
Al119       O748   1.781       .  S
O120        C127   1.261       .  A
O120       Al128   1.908       .  S
O121        C130   1.277       .  A
O121       Al752   1.993   1_545  S
O122       Al752   1.916   1_545  S
O123        C130   1.253       .  A
O124       Al743   1.781   1_545  S
O124       Al752   1.786   1_545  S
O125        C126   1.257       .  A
C126        O735   1.267   1_545  A
C126        C396   1.473       .  S
C127        C459   1.478       .  S
Al128       O745   1.993       .  S
Al128       O746   1.916       .  S
Al128       O748   1.786       .  S
O129       Al743   1.860   1_545  S
C130        C419   1.506       .  S
C131        O132   1.257       .  A
C131        C409   1.498       .  S
O133        C148   1.264       .  A
O133       Al141   1.931       .  S
C134        O144   1.265       .  A
C134        O135   1.255       .  A
C134        C379   1.492       .  S
O135       Al137   1.901       .  S
O136        C138   1.256       .  A
O136       Al137   1.871       .  S
Al137       O145   1.876       .  S
Al137       O147   1.898       .  S
Al137       O146   1.782       .  S
C138        O151   1.259       .  A
C138        C429   1.447       .  S
O139        C149   1.261       .  A
O139       Al141   1.912       .  S
O140        C153   1.282       .  A
O140       Al150   1.967       .  S
Al141       O154   1.853       .  S
Al141       O151   1.874       .  S
Al141       O146   1.773       .  S
O142        C149   1.266       .  A
O142       Al150   1.934       .  S
O143        C152   1.283       .  A
O143       Al150   2.004       .  S
O144       Al150   1.939       .  S
O145        C152   1.259       .  A
O146       Al150   1.779       .  S
O147        C148   1.259       .  A
C148        C449   1.478       .  S
C149        C386   1.493       .  S
C152        C406   1.510       .  S
C153        O154   1.256       .  A
C153        C416   1.502       .  S
O155        C170   1.269       .  A
O155       Al163   1.958       .  S
C156        O166   1.276       .  A
C156        O157   1.259       .  A
C156        C376   1.496       .  S
O157       Al159   1.865       .  S
O158        C160   1.257       .  A
O158       Al159   1.892       .  S
Al159       O167   1.883       .  S
Al159       O169   1.876       .  S
Al159      O1416   1.766   1_455  S
C160       O1421   1.253   1_455  A
C160        C369   1.428       .  S
O161        C171   1.265       .  A
O161       Al163   1.942       .  S
O162        C175   1.282       .  A
O162       Al172   2.008       .  S
Al163       O176   1.871       .  S
Al163       O173   1.869       .  S
Al163       O168   1.781       .  S
O164        C171   1.262       .  A
O164       Al172   1.897       .  S
O165       C1422   1.278       .  A
O165       Al172   1.968       .  S
O166      Al1420   1.970   1_455  S
O167        C174   1.254       .  A
O168       Al172   1.773       .  S
O168      Al1407   1.766       .  S
O169       C1418   1.261   1_455  A
C170       O1417   1.261       .  A
C170       C1587   1.486       .  S
C171        C399   1.485       .  S
Al172      O1414   1.970       .  S
O173       C1408   1.253       .  A
C174       O1413   1.278   1_455  A
C174        C356   1.492       .  S
C175        O176   1.258       .  A
C175        C349   1.513       .  S
O177        C816   1.268       .  A
O177       Al185   1.936       .  S
C178        O188   1.261       .  A
C178        O179   1.249       .  A
C178        C319   1.486       .  S
O179       Al181   1.883       .  S
O180        C182   1.254       .  A
O180       Al181   1.871       .  S
Al181       O189   1.882       .  S
Al181       O191   1.874       .  S
Al181       O190   1.791       .  S
C182        O195   1.250       .  A
C182        C366   1.423       .  S
O183        C193   1.264       .  A
O183       Al185   1.921       .  S
O184        C197   1.279       .  A
O184       Al194   1.969       .  S
Al185       O198   1.849       .  S
Al185       O819   1.860       .  S
Al185       O814   1.801       .  S
O186        C193   1.263       .  A
O186       Al194   1.907       .  S
O187        C196   1.279       .  A
O187       Al818   1.980   1_545  S
O188       Al818   1.933   1_545  S
O189        C196   1.261       .  A
O190       Al809   1.801   1_545  S
O190       Al818   1.789   1_545  S
O191        C192   1.255       .  A
C192        O801   1.268   1_545  A
C192        C389   1.475       .  S
C193        C329   1.481       .  S
Al194       O811   1.980       .  S
Al194       O812   1.933       .  S
Al194       O814   1.789       .  S
O195       Al809   1.860   1_545  S
C196        C346   1.511       .  S
C197        O198   1.249       .  A
C197        C359   1.490       .  S
O199        C214   1.261       .  A
O199       Al207   1.910       .  S
C200        O210   1.267       .  A
C200        O201   1.260       .  A
C200        C316   1.501       .  S
O201       Al203   1.912   1_554  S
O202        C204   1.250       .  A
O202       Al203   1.856   1_554  S
Al203       O211   1.871       .  S
Al203       O213   1.895       .  S
Al203       O212   1.783   1_556  S
C204        O217   1.255   1_554  A
C204        C309   1.437       .  S
O205        C215   1.260       .  A
O205       Al207   1.907   1_554  S
O206        C219   1.286   1_554  A
O206       Al216   1.981       .  S
Al207       O220   1.851       .  S
Al207       O217   1.857       .  S
Al207       O212   1.776   1_556  S
O208        C215   1.262       .  A
O208       Al216   1.920       .  S
O209        C218   1.279       .  A
O209       Al216   1.999       .  S
O210       Al216   1.936       .  S
O211        C218   1.255   1_556  A
O212       Al216   1.784       .  S
O213        C214   1.258       .  A
C214        C279   1.468       .  S
C215        C336   1.487       .  S
C218        C299   1.512       .  S
C219        O220   1.257       .  A
C219        C289   1.505       .  S
O221        C236   1.265       .  A
O221       Al229   1.936       .  S
C222        O232   1.267       .  A
C222        O223   1.255       .  A
C222        C266   1.494       .  S
O223       Al225   1.904       .  S
O224        C226   1.257       .  A
O224       Al225   1.862       .  S
Al225       O233   1.877   1_556  S
Al225       O235   1.874   1_556  S
Al225      O1482   1.783   1_455  S
C226       O1487   1.253   1_456  A
C226        C306   1.444       .  S
O227        C237   1.263       .  A
O227       Al229   1.928   1_556  S
O228        C241   1.285       .  A
O228       Al238   1.974       .  S
Al229       O242   1.849       .  S
Al229       O239   1.862       .  S
Al229       O234   1.789   1_554  S
O230        C237   1.261       .  A
O230       Al238   1.898       .  S
O231       C1488   1.279       .  A
O231       Al238   1.989       .  S
O232      Al1486   1.950   1_455  S
O233        C240   1.258   1_554  A
O234       Al238   1.779       .  S
O234      Al1473   1.783       .  S
O235       C1484   1.256       .  A
C236       O1483   1.256       .  A
C236       C1574   1.479       .  S
C237        C569   1.492       .  S
Al238      O1480   1.950       .  S
O239       C1474   1.253   1_554  A
C240       O1479   1.279       .  A
C240        C286   1.509       .  S
C241        O242   1.255   1_556  A
C241        C296   1.496   1_556  S
O243        C258   1.263       .  A
O243       Al251   1.913       .  S
C244        O245   1.257       .  A
C244        O878   1.267       .  A
C244        C269   1.482       .  S
O245       Al247   1.911       .  S
O246        C248   1.252       .  A
O246       Al247   1.850       .  S
Al247       O255   1.871       .  S
Al247       O257   1.882       .  S
Al247       O880   1.780       .  S
C248        O885   1.251       .  A
C248        C586   1.434       .  S
O249        C259   1.261       .  A
O249       Al251   1.914       .  S
O250        C263   1.286       .  A
O250       Al260   1.978       .  S
Al251       O264   1.847       .  S
Al251       O261   1.852       .  S
Al251       O256   1.775       .  S
O252        C259   1.263       .  A
O252       Al260   1.924       .  S
O253        C886   1.279   1_545  A
O253       Al260   1.997       .  S
O254        C868   1.267   1_545  A
O254       Al260   1.947       .  S
O255        C262   1.254       .  A
O256       Al260   1.778       .  S
O256       Al871   1.780   1_545  S
O257        C882   1.257       .  A
C258        O881   1.257   1_545  A
C258       C1183   1.463   1_545  S
C259        C276   1.482       .  S
O261        C872   1.251   1_545  A
C262        O877   1.279       .  A
C262        C596   1.510       .  S
C263        O264   1.256       .  A
C263        C579   1.499       .  S
C265        C266   1.413       .  A
C265        C270   1.406       .  A
C265        H272   1.083       .  S
C266        C267   1.413       .  A
C267        C268   1.406       .  A
C267      Br1522   1.920       .  S
C268        C269   1.406       .  A
C268        H273   1.083       .  S
C269        C270   1.404       .  A
C270       Br271   1.917       .  S
Br274      C1515   1.920       .  S
C275        C276   1.405       .  A
C275        C280   1.405       .  A
C275        H282   1.083       .  S
C276        C277   1.411       .  A
C277        C278   1.394       .  A
C277       Br284   1.905       .  S
C278        C279   1.395       .  A
C278        H283   1.084       .  S
C279        C280   1.411       .  A
C280       Br281   1.918       .  S
C285        C286   1.421   1_554  A
C285        C290   1.414       .  A
C285        H292   1.083       .  S
C286        C287   1.410       .  A
C287        C288   1.403       .  A
C287       Br294   1.921       .  S
C288        C289   1.417       .  A
C288        H293   1.084       .  S
C289        C290   1.407   1_556  A
C290       Br291   1.918       .  S
C295        C296   1.413       .  A
C295        C300   1.408       .  A
C295        H302   1.084       .  S
C296        C297   1.408   1_554  A
C297        C298   1.411       .  A
C297       Br304   1.917       .  S
C298        C299   1.418   1_556  A
C298        H303   1.083       .  S
C299        C300   1.416       .  A
C300       Br301   1.921       .  S
C305        C306   1.402       .  A
C305        C934   1.380       .  A
C305        H312   1.084       .  S
C306        C307   1.410   1_556  A
C307        C932   1.377       .  A
C307      Br1562   1.924   1_455  S
C308        C309   1.397       .  A
C308        C931   1.377   1_545  A
C308        H313   1.085       .  S
C309        C310   1.405   1_554  A
C310        C929   1.380   1_545  A
C310       Br311   1.923       .  S
Br314      C1555   1.924       .  S
C315        C316   1.417       .  A
C315        C320   1.405       .  A
C315        H322   1.083       .  S
C316        C317   1.415       .  A
C317        C318   1.403       .  A
C317       Br324   1.922       .  S
C318        C319   1.407       .  A
C318        H323   1.084       .  S
C319        C320   1.403       .  A
C320       Br321   1.917       .  S
C325        C326   1.402       .  A
C325        C330   1.386       .  A
C325        H332   1.085       .  S
C326       C1484   1.479       .  S
C326        C327   1.407       .  A
C327        C328   1.415       .  A
C327      Br1582   1.914   1_455  S
C328        C329   1.412       .  A
C328        H333   1.083       .  S
C329        C330   1.407       .  A
C330       Br331   1.915       .  S
Br334      C1575   1.914       .  S
C335        C336   1.407       .  A
C335        C340   1.407       .  A
C335        H342   1.084       .  S
C336        C337   1.413       .  A
C337        C338   1.391       .  A
C337       Br344   1.911       .  S
C338        C339   1.401       .  A
C338        H343   1.084       .  S
C339       C1418   1.486   1_455  S
C339        C340   1.417       .  A
C340       Br341   1.919   1_455  S
C345        C346   1.419       .  A
C345        C350   1.413       .  A
C345        H352   1.083       .  S
C346        C347   1.410       .  A
C347        C348   1.406       .  A
C347       Br978   1.920       .  S
C348        C349   1.418       .  A
C348        H353   1.082       .  S
C349        C350   1.409       .  A
C350       Br351   1.917       .  S
Br354       C971   1.920       .  S
C355        C356   1.411       .  A
C355        C360   1.412       .  A
C355        H362   1.084       .  S
C356        C357   1.406       .  A
C357        C358   1.410       .  A
C357      Br1612   1.916       .  S
C358        C359   1.413       .  A
C358        H363   1.084       .  S
C359        C360   1.408       .  A
C360       Br361   1.915       .  S
Br364      C1605   1.916       .  S
C365        C366   1.392       .  A
C365        C370   1.380       .  A
C365        H372   1.086       .  S
C366        C367   1.399       .  A
C367        C368   1.383       .  A
C367       Br374   1.912       .  S
C368        C369   1.395       .  A
C368        H373   1.086       .  S
C369        C370   1.402       .  A
C370       Br371   1.908       .  S
C375        C376   1.415       .  A
C375        C380   1.401       .  A
C375        H382   1.083       .  S
C376        C377   1.411       .  A
C377        C378   1.400       .  A
C377       Br384   1.922       .  S
C378        C379   1.413       .  A
C378        H383   1.083       .  S
C379        C380   1.408       .  A
C380       Br381   1.920       .  S
C385        C386   1.408       .  A
C385        C390   1.408       .  A
C385        H392   1.083       .  S
C386        C387   1.414       .  A
C387        C388   1.398       .  A
C387       Br394   1.911       .  S
C388        C389   1.400       .  A
C388        H393   1.085       .  S
C389        C390   1.410       .  A
C390       Br391   1.917   1_545  S
C395        C396   1.401       .  A
C395        C400   1.389       .  A
C395        H402   1.080       .  S
C396        C397   1.405       .  A
C397        C398   1.411       .  A
C397      Br1028   1.914       .  S
C398        C399   1.414       .  A
C398        H403   1.083       .  S
C399        C400   1.411       .  A
C400       Br401   1.919       .  S
Br404      C1021   1.914       .  S
C405        C406   1.416       .  A
C405        C410   1.411       .  A
C405        H412   1.083       .  S
C406        C407   1.416       .  A
C407        C408   1.407       .  A
C407       Br414   1.921       .  S
C408        C409   1.412       .  A
C408        H413   1.084       .  S
C409        C410   1.411       .  A
C410       Br411   1.918       .  S
C415        C416   1.418       .  A
C415        C420   1.405       .  A
C415        H422   1.084       .  S
C416        C417   1.407       .  A
C417        C418   1.409       .  A
C417       Br424   1.920       .  S
C418        C419   1.420       .  A
C418        H423   1.083       .  S
C419        C420   1.408       .  A
C420       Br421   1.919       .  S
C425        C426   1.400       .  A
C425       C1678   1.379       .  A
C425        H432   1.084       .  S
C426        C427   1.408       .  A
C427       C1676   1.387       .  A
C427       Br434   1.921       .  S
C428        C429   1.401       .  A
C428       C1675   1.387   1_455  A
C428        H433   1.084       .  S
C429        C430   1.406       .  A
C430       C1673   1.379   1_455  A
C430       Br431   1.923       .  S
C435        C436   1.404       .  A
C435        C440   1.406       .  A
C435        H442   1.084       .  S
C436        C437   1.410       .  A
C437        C438   1.396       .  A
C437       Br444   1.918       .  S
C438        C439   1.400       .  A
C438        H443   1.083       .  S
C439        C440   1.412       .  A
C440       Br441   1.919       .  S
C445        C446   1.398       .  A
C445        C450   1.383       .  A
C445        H452   1.082       .  S
C446        C447   1.415       .  A
C447        C448   1.414       .  A
C447       Br454   1.915       .  S
C448        C449   1.407       .  A
C448        H453   1.083       .  S
C449        C450   1.407       .  A
C450       Br451   1.911       .  S
C455        C456   1.405       .  A
C455        C460   1.405       .  A
C455        H462   1.083       .  S
C456        C457   1.404       .  A
C457        C458   1.397       .  A
C457       Br464   1.916       .  S
C458        C459   1.405       .  A
C458        H463   1.082       .  S
C459        C460   1.409       .  A
C460       Br461   1.918       .  S
C465        C466   1.401       .  A
C465        C470   1.406       .  A
C465        H472   1.083       .  S
C466        C467   1.430       .  A
C467        C468   1.405       .  A
C467       Br474   1.921       .  S
C468        C469   1.400       .  A
C468        H473   1.083       .  S
C469        C470   1.430       .  A
C470       Br471   1.925       .  S
C475        C476   1.393       .  A
C475        C480   1.408       .  A
C475        H482   1.083       .  S
C476        C477   1.443       .  A
C477        C478   1.394       .  A
C477       Br484   1.932       .  S
C478        C479   1.384       .  A
C478        H483   1.084       .  S
C479        C480   1.437       .  A
C480       Br481   1.926       .  S
C485        C486   1.402       .  A
C485       C1114   1.383       .  A
C485        H492   1.084       .  S
C486        C487   1.391       .  A
C487       C1112   1.370       .  A
C487       Br494   1.923       .  S
C488        C489   1.402       .  A
C488       C1111   1.370       .  A
C488        H493   1.079       .  S
C489        C490   1.395       .  A
C490       C1109   1.383   1_545  A
C490      Br1739   1.918       .  S
Br491      C1738   1.918   1_455  S
C495        C496   1.417       .  A
C495        C500   1.409       .  A
C495        H502   1.082       .  S
C496        C497   1.416       .  A
C497        C498   1.403       .  A
C497      Br1128   1.919       .  S
C498        C499   1.407       .  A
C498        H503   1.082       .  S
C499        C500   1.405       .  A
C500       Br501   1.917       .  S
Br504      C1121   1.919   1_545  S
C505        C506   1.403       .  A
C505        C510   1.383       .  A
C505        H512   1.083       .  S
C506        C507   1.414       .  A
C507        C508   1.411       .  A
C507      Br1762   1.918       .  S
C508        C509   1.411       .  A
C508        H513   1.083       .  S
C509        C510   1.418       .  A
C510       Br511   1.928       .  S
Br514      C1755   1.918   1_455  S
C515        C516   1.406       .  A
C515        C520   1.399       .  A
C515        H522   1.084       .  S
C516        C517   1.402       .  A
C517        C518   1.400       .  A
C517      Br1772   1.917       .  S
C518        C519   1.406       .  A
C518        H523   1.082       .  S
C519        C520   1.404       .  A
C520       Br521   1.921       .  S
Br524      C1765   1.917       .  S
C525        C526   1.417       .  A
C525        C530   1.398       .  A
C525        H532   1.084       .  S
C526        C527   1.407       .  A
C527        C528   1.412       .  A
C527       Br534   1.918       .  S
C528        C529   1.420       .  A
C528        H533   1.083       .  S
C529        C530   1.408       .  A
C530      Br1155   1.923       .  S
Br531      C1154   1.923   1_545  S
C535        C536   1.412       .  A
C535        C540   1.407       .  A
C535        H542   1.084       .  S
C536        C537   1.407       .  A
C537        C538   1.410       .  A
C537       Br544   1.912       .  S
C538        C539   1.417       .  A
C538        H543   1.083       .  S
C539        C540   1.417       .  A
C540       Br541   1.921       .  S
C545        C546   1.394       .  A
C545        C550   1.378       .  A
C545        H552   1.084       .  S
C546        C547   1.400       .  A
C547        C548   1.373       .  A
C547      Br1802   1.921       .  S
C548        C549   1.403       .  A
C548       H1177   1.084       .  S
C549        C550   1.413       .  A
C550       Br551   1.923       .  S
H553       C1172   1.084   1_545  S
Br554      C1795   1.921   1_455  S
C555        C556   1.405       .  A
C555        C560   1.403       .  A
C555        H562   1.081       .  S
C556        C557   1.411       .  A
C557        C558   1.392       .  A
C557       Br564   1.907       .  S
C558        C559   1.396       .  A
C558        H563   1.084       .  S
C559        C882   1.463       .  S
C559        C560   1.409       .  A
C560       Br561   1.918       .  S
C565        C566   1.406       .  A
C565        C570   1.410       .  A
C565        H572   1.084       .  S
C566        C567   1.409       .  A
C567        C568   1.391       .  A
C567       Br574   1.923       .  S
C568        C569   1.404       .  A
C568        H573   1.081       .  S
C569        C570   1.415       .  A
C570       Br571   1.914       .  S
C575        C576   1.421       .  A
C575        C580   1.408       .  A
C575        H582   1.082       .  S
C576        C577   1.407       .  A
C577        C578   1.405       .  A
C577       Br584   1.919       .  S
C578        C579   1.419       .  A
C578        H583   1.084       .  S
C579        C580   1.404       .  A
C580       Br581   1.918       .  S
C585        C586   1.401       .  A
C585       C1838   1.380   1_455  A
C585        H592   1.084       .  S
C586        C587   1.406       .  A
C587       C1836   1.372   1_455  A
C587      Br1218   1.927       .  S
C588        C589   1.399       .  A
C588       C1835   1.372       .  A
C588        H593   1.085       .  S
C589        C590   1.404       .  A
C590       C1833   1.380       .  A
C590       Br591   1.922       .  S
Br594      C1211   1.927   1_545  S
C595        C596   1.421       .  A
C595        C600   1.413       .  A
C595        H602   1.082       .  S
C596        C597   1.409       .  A
C597        C598   1.404       .  A
C597      Br1228   1.921       .  S
C598        C599   1.419       .  A
C598        H603   1.083       .  S
C599        C600   1.408       .  A
C600       Br601   1.916       .  S
Br604      C1221   1.921   1_545  S
C605        C606   1.414       .  A
C605        C610   1.403       .  A
C605        H612   1.082       .  S
C606        C607   1.407       .  A
C607        C608   1.404       .  A
C607       Br614   1.919       .  S
C608        C609   1.414       .  A
C608        H613   1.082       .  S
C609        C610   1.405       .  A
C610       Br611   1.918       .  S
C615        C616   1.405       .  A
C615       C1244   1.401       .  A
C615        H622   1.084       .  S
C616        C617   1.407       .  A
C617        C618   1.404       .  A
C617       Br624   1.920       .  S
C618        C619   1.407       .  A
C618        H623   1.084       .  S
C619        C684   1.472       .  S
C619       C1244   1.405       .  A
C620       C1239   1.401       .  A
C620       C1243   1.405       .  A
C620       Br621   1.918   1_565  S
O625        C640   1.266       .  A
O625       Al633   1.932       .  S
C626        O636   1.268       .  A
C626        O627   1.256       .  A
C626       C1230   1.493       .  S
O627       Al629   1.902       .  S
O628        C630   1.252       .  A
O628       Al629   1.856       .  S
Al629       O637   1.862       .  S
Al629       O639   1.880       .  S
Al629       O638   1.778       .  S
C630        O643   1.255       .  A
C630       C1213   1.431       .  S
O631        C641   1.263       .  A
O631       Al633   1.920       .  S
O632        C645   1.287       .  A
O632       Al642   1.983       .  S
Al633       O646   1.843       .  S
Al633       O643   1.849       .  S
Al633       O638   1.775       .  S
O634        C641   1.261       .  A
O634       Al642   1.911       .  S
O635        C644   1.280       .  A
O635       Al642   2.001       .  S
O636       Al642   1.948       .  S
O637        C644   1.253       .  A
O638       Al642   1.786       .  S
O639        C640   1.256       .  A
C640       C1190   1.479       .  S
C641       C1240   1.475       .  S
C644       C1200   1.506       .  S
C645        O646   1.255       .  A
C645       C1223   1.507       .  S
O647       C1910   1.260   1_455  A
O647       Al655   1.909       .  S
C648        O658   1.269       .  A
C648        O649   1.258       .  A
C648       C1233   1.492       .  S
O649       Al651   1.906       .  S
O650        C652   1.251       .  A
O650       Al651   1.847       .  S
Al651       O659   1.879       .  S
Al651       O661   1.894       .  S
Al651      O1908   1.782       .  S
C652        O665   1.252       .  A
C652       C1170   1.426       .  S
O653        C663   1.257       .  A
O653       Al655   1.903       .  S
O654        C667   1.286       .  A
O654       Al664   1.979       .  S
Al655       O668   1.840       .  S
Al655      O1913   1.854   1_455  S
Al655       O660   1.775       .  S
O656        C663   1.261       .  A
O656       Al664   1.921       .  S
O657        C666   1.277       .  A
O657      Al1912   1.987       .  S
O658      Al1912   1.946       .  S
O659        C666   1.259       .  A
O660      Al1899   1.782   1_455  S
O660       Al664   1.785       .  S
O661        C662   1.257       .  A
C662       O1895   1.260       .  A
C662       C1140   1.466       .  S
C663       C1180   1.481       .  S
Al664      O1905   1.987   1_455  S
Al664      O1906   1.946   1_455  S
O665      Al1903   1.854       .  S
C666       C1163   1.512       .  S
C667        O668   1.257       .  A
C667       C1150   1.501       .  S
O669        C684   1.264       .  A
O669       Al677   1.918       .  S
C670        O671   1.263       .  A
C670       C1120   1.507       .  S
O671       Al673   1.923       .  S
O672        C674   1.246       .  A
O672       Al673   1.843       .  S
Al673       O681   1.872       .  S
Al673       O683   1.895       .  S
C674       C1173   1.444       .  S
O675        C685   1.264       .  A
O675       Al677   1.932       .  S
O676        C689   1.286       .  A
O676       Al686   1.974       .  S
Al677       O690   1.860       .  S
Al677       O687   1.852       .  S
Al677       O682   1.784       .  S
O678        C685   1.254       .  A
O678       Al686   1.883       .  S
O679       Al686   1.963       .  S
O680       Al686   1.935       .  S
O681        C688   1.254       .  A
O682       Al686   1.780       .  S
C685       C1133   1.490       .  S
C688       C1153   1.501       .  S
C689        O690   1.258       .  A
C689       C1160   1.496       .  S
O691        C706   1.262       .  A
O691       Al699   1.912       .  S
C692        O702   1.266       .  A
C692        O693   1.257       .  A
C692       C1123   1.492       .  S
O693       Al695   1.906       .  S
O694        C696   1.251       .  A
O694       Al695   1.861       .  S
Al695       O703   1.865       .  S
Al695       O705   1.903       .  S
Al695       O704   1.782       .  S
C696        O709   1.245       .  A
C696       C1110   1.408       .  S
O697        C707   1.263       .  A
O697       Al699   1.916       .  S
O698        C711   1.288       .  A
O698       Al708   1.995       .  S
Al699       O712   1.803       .  S
Al699       O709   1.824       .  S
Al699       O704   1.778       .  S
O700        C707   1.260       .  A
O700       Al708   1.906       .  S
O701        C710   1.281       .  A
O701       Al708   1.992       .  S
O702       Al708   1.944       .  S
O703        C710   1.252       .  A
O704       Al708   1.791       .  S
O705        C706   1.260       .  A
C706       C1080   1.471       .  S
C707       C1143   1.469       .  S
C710       C1090   1.509       .  S
C711        O712   1.238       .  A
C711       C1100   1.502       .  S
O713       C1976   1.275   1_455  A
O713       Al721   1.978       .  S
C714        O724   1.278       .  A
C714        O715   1.262       .  A
C714       C1060   1.476       .  S
O715       Al717   1.876       .  S
O716        C718   1.248       .  A
O716       Al717   1.853       .  S
Al717       O725   1.841       .  S
Al717       O727   1.877       .  S
Al717      O1974   1.752       .  S
C718        O731   1.255       .  A
C718       C1113   1.417       .  S
O719        C729   1.267       .  A
O719       Al721   1.954       .  S
O720        C733   1.283       .  A
O720       Al730   1.995       .  S
Al721       O734   1.859       .  S
Al721      O1979   1.883       .  S
Al721       O726   1.783       .  S
O722        C729   1.259       .  A
O722       Al730   1.866       .  S
O723        C732   1.279       .  A
O723      Al1978   1.970       .  S
O724      Al1978   1.976       .  S
O725        C732   1.240       .  A
O726      Al1965   1.752   1_455  S
O726       Al730   1.766       .  S
O727        C728   1.263       .  A
C728       O1961   1.275       .  A
C728       C1130   1.490       .  S
C729       C1070   1.483       .  S
Al730      O1971   1.970   1_455  S
Al730      O1972   1.976   1_455  S
O731      Al1969   1.883       .  S
C732       C1103   1.496       .  S
C733        O734   1.251       .  A
C733       C1093   1.507       .  S
O735       Al743   1.934       .  S
C736        O746   1.263       .  A
C736        O737   1.258       .  A
C736       C1063   1.477       .  S
O737       Al739   1.916       .  S
O738        C740   1.256       .  A
O738       Al739   1.876       .  S
Al739       O747   1.865       .  S
Al739       O749   1.878       .  S
Al739       O748   1.784       .  S
C740        O753   1.255       .  A
C740       C1050   1.446       .  S
O741        C751   1.263       .  A
O741       Al743   1.920       .  S
O742        C755   1.284       .  A
O742       Al752   1.964       .  S
Al743       O756   1.864       .  S
O744        C751   1.261       .  A
O744       Al752   1.908       .  S
O745        C754   1.277       .  A
O747        C754   1.253       .  A
O749        C750   1.257       .  A
C750       C1020   1.473       .  S
C751       C1083   1.478       .  S
C754       C1043   1.506       .  S
C755        O756   1.257       .  A
C755       C1033   1.498       .  S
O757        C772   1.264       .  A
O757       Al765   1.931       .  S
C758        O768   1.265       .  A
C758        O759   1.255       .  A
C758       C1003   1.492       .  S
O759       Al761   1.901       .  S
O760        C762   1.256       .  A
O760       Al761   1.871       .  S
Al761       O769   1.876       .  S
Al761       O771   1.898       .  S
Al761       O770   1.782       .  S
C762        O775   1.259       .  A
C762       C1053   1.447       .  S
O763        C773   1.261       .  A
O763       Al765   1.912       .  S
O764        C777   1.282       .  A
O764       Al774   1.967       .  S
Al765       O778   1.853       .  S
Al765       O775   1.874       .  S
Al765       O770   1.773       .  S
O766        C773   1.266       .  A
O766       Al774   1.934       .  S
O767        C776   1.283       .  A
O767       Al774   2.004       .  S
O768       Al774   1.939       .  S
O769        C776   1.259       .  A
O770       Al774   1.779       .  S
O771        C772   1.259       .  A
C772       C1073   1.478       .  S
C773       C1010   1.493       .  S
C776       C1030   1.510       .  S
C777        O778   1.256       .  A
C777       C1040   1.502       .  S
O779        C794   1.269       .  A
O779       Al787   1.958       .  S
C780        O790   1.276       .  A
C780        O781   1.259       .  A
C780       C1000   1.496       .  S
O781       Al783   1.865       .  S
O782        C784   1.257       .  A
O782       Al783   1.892       .  S
Al783       O791   1.883       .  S
Al783       O793   1.876       .  S
Al783      O2040   1.766   1_455  S
C784       O2045   1.253   1_455  A
C784        C993   1.428       .  S
O785        C795   1.265       .  A
O785       Al787   1.942       .  S
O786        C799   1.282       .  A
O786       Al796   2.008       .  S
Al787       O800   1.871       .  S
Al787       O797   1.869       .  S
Al787       O792   1.781       .  S
O788        C795   1.262       .  A
O788       Al796   1.897       .  S
O789       C2046   1.278       .  A
O789       Al796   1.968       .  S
O790      Al2044   1.970   1_455  S
O791        C798   1.254       .  A
O792      Al2031   1.766       .  S
O792       Al796   1.773       .  S
O793       C2042   1.261   1_455  A
C794       O2041   1.261       .  A
C794       C2211   1.486       .  S
C795       C1023   1.485       .  S
Al796      O2038   1.970       .  S
O797       C2032   1.253       .  A
C798       O2037   1.278   1_455  A
C798        C980   1.492       .  S
C799        O800   1.258       .  A
C799        C973   1.513       .  S
O801       Al809   1.936       .  S
C802        O812   1.261       .  A
C802        O803   1.249       .  A
C802        C943   1.486       .  S
O803       Al805   1.883       .  S
O804        C806   1.254       .  A
O804       Al805   1.871       .  S
Al805       O813   1.882       .  S
Al805       O815   1.874       .  S
Al805       O814   1.791       .  S
C806        O819   1.250       .  A
C806        C990   1.423       .  S
O807        C817   1.264       .  A
O807       Al809   1.921       .  S
O808        C821   1.279       .  A
O808       Al818   1.969       .  S
Al809       O822   1.849       .  S
O810        C817   1.263       .  A
O810       Al818   1.907       .  S
O811        C820   1.279       .  A
O813        C820   1.261       .  A
O815        C816   1.255       .  A
C816       C1013   1.475       .  S
C817        C953   1.481       .  S
C820        C970   1.511       .  S
C821        O822   1.249       .  A
C821        C983   1.490       .  S
O823        C838   1.261       .  A
O823       Al831   1.910       .  S
C824        O834   1.267       .  A
C824        O825   1.260       .  A
C824        C940   1.501       .  S
O825       Al827   1.912   1_554  S
O826        C828   1.250       .  A
O826       Al827   1.856   1_554  S
Al827       O835   1.871       .  S
Al827       O837   1.895       .  S
Al827       O836   1.783   1_556  S
C828        O841   1.255   1_554  A
C828        C933   1.437       .  S
O829        C839   1.260       .  A
O829       Al831   1.907   1_554  S
O830        C843   1.286   1_554  A
O830       Al840   1.981       .  S
Al831       O844   1.851       .  S
Al831       O841   1.857       .  S
Al831       O836   1.776   1_556  S
O832        C839   1.262       .  A
O832       Al840   1.920       .  S
O833        C842   1.279       .  A
O833       Al840   1.999       .  S
O834       Al840   1.936       .  S
O835        C842   1.255   1_556  A
O836       Al840   1.784       .  S
O837        C838   1.258       .  A
C838        C903   1.468       .  S
C839        C960   1.487       .  S
C842        C923   1.512       .  S
C843        O844   1.257       .  A
C843        C913   1.505       .  S
O845        C860   1.265       .  A
O845       Al853   1.936       .  S
C846        O856   1.267       .  A
C846        O847   1.255       .  A
C846        C890   1.494       .  S
O847       Al849   1.904       .  S
O848        C850   1.257       .  A
O848       Al849   1.862       .  S
Al849       O857   1.877   1_556  S
Al849       O859   1.874   1_556  S
Al849      O2106   1.783   1_455  S
C850       O2111   1.253   1_456  A
C850        C930   1.444       .  S
O851        C861   1.263       .  A
O851       Al853   1.928   1_556  S
O852        C865   1.285       .  A
O852       Al862   1.974       .  S
Al853       O866   1.849       .  S
Al853       O863   1.862       .  S
Al853       O858   1.789   1_554  S
O854        C861   1.261       .  A
O854       Al862   1.898       .  S
O855       C2112   1.279       .  A
O855       Al862   1.989       .  S
O856      Al2110   1.950   1_455  S
O857        C864   1.258   1_554  A
O858      Al2097   1.783       .  S
O858       Al862   1.779       .  S
O859       C2108   1.256       .  A
C860       O2107   1.256       .  A
C860       C2198   1.479       .  S
C861       C1193   1.492       .  S
Al862      O2104   1.950       .  S
O863       C2098   1.253   1_554  A
C864       O2103   1.279       .  A
C864        C910   1.509       .  S
C865        O866   1.255   1_556  A
C865        C920   1.496   1_556  S
O867        C882   1.263       .  A
O867       Al875   1.913       .  S
C868        O869   1.257       .  A
C868        C893   1.482       .  S
O869       Al871   1.911       .  S
O870        C872   1.252       .  A
O870       Al871   1.850       .  S
Al871       O879   1.871       .  S
Al871       O881   1.882       .  S
C872       C1210   1.434       .  S
O873        C883   1.261       .  A
O873       Al875   1.914       .  S
O874        C887   1.286       .  A
O874       Al884   1.978       .  S
Al875       O888   1.847       .  S
Al875       O885   1.852       .  S
Al875       O880   1.775       .  S
O876        C883   1.263       .  A
O876       Al884   1.924       .  S
O877       Al884   1.997       .  S
O878       Al884   1.947       .  S
O879        C886   1.254       .  A
O880       Al884   1.778       .  S
C883        C900   1.482       .  S
C886       C1220   1.510       .  S
C887        O888   1.256       .  A
C887       C1203   1.499       .  S
C889        C890   1.413       .  A
C889        C894   1.406       .  A
C889        H896   1.083       .  S
C890        C891   1.413       .  A
C891        C892   1.406       .  A
C891      Br2146   1.920       .  S
C892        C893   1.406       .  A
C892        H897   1.083       .  S
C893        C894   1.404       .  A
C894       Br895   1.917       .  S
Br898      C2139   1.920       .  S
C899        C900   1.405       .  A
C899        C904   1.405       .  A
C899        H906   1.083       .  S
C900        C901   1.411       .  A
C901        C902   1.394       .  A
C901       Br908   1.905       .  S
C902        C903   1.395       .  A
C902        H907   1.084       .  S
C903        C904   1.411       .  A
C904       Br905   1.918       .  S
C909        C910   1.421   1_554  A
C909        C914   1.414       .  A
C909        H916   1.083       .  S
C910        C911   1.410       .  A
C911        C912   1.403       .  A
C911       Br918   1.921       .  S
C912        C913   1.417       .  A
C912        H917   1.084       .  S
C913        C914   1.407   1_556  A
C914       Br915   1.918       .  S
C919        C920   1.413       .  A
C919        C924   1.408       .  A
C919        H926   1.084       .  S
C920        C921   1.408   1_554  A
C921        C922   1.411       .  A
C921       Br928   1.917       .  S
C922        C923   1.418   1_556  A
C922        H927   1.083       .  S
C923        C924   1.416       .  A
C924       Br925   1.921       .  S
C929        C930   1.402       .  A
C929        H936   1.084       .  S
C930        C931   1.410   1_556  A
C931      Br2186   1.924   1_455  S
C932        C933   1.397       .  A
C932        H937   1.085       .  S
C933        C934   1.405   1_554  A
C934       Br935   1.923       .  S
Br938      C2179   1.924       .  S
C939        C940   1.417       .  A
C939        C944   1.405       .  A
C939        H946   1.083       .  S
C940        C941   1.415       .  A
C941        C942   1.403       .  A
C941       Br948   1.922       .  S
C942        C943   1.407       .  A
C942        H947   1.084       .  S
C943        C944   1.403       .  A
C944       Br945   1.917       .  S
C949        C950   1.402       .  A
C949        C954   1.386       .  A
C949        H956   1.085       .  S
C950       C2108   1.479       .  S
C950        C951   1.407       .  A
C951        C952   1.415       .  A
C951      Br2206   1.914   1_455  S
C952        C953   1.412       .  A
C952        H957   1.083       .  S
C953        C954   1.407       .  A
C954       Br955   1.915   1_565  S
Br958      C2199   1.914       .  S
C959        C960   1.407       .  A
C959        C964   1.407       .  A
C959        H966   1.084       .  S
C960        C961   1.413       .  A
C961        C962   1.391       .  A
C961       Br968   1.911       .  S
C962        C963   1.401       .  A
C962        H967   1.084       .  S
C963       C2042   1.486   1_455  S
C963        C964   1.417       .  A
C964       Br965   1.919   1_455  S
C969        C970   1.419       .  A
C969        C974   1.413       .  A
C969        H976   1.083       .  S
C970        C971   1.410       .  A
C971        C972   1.406       .  A
C972        C973   1.418       .  A
C972        H977   1.082       .  S
C973        C974   1.409       .  A
C974       Br975   1.917       .  S
C979        C980   1.411       .  A
C979        C984   1.412       .  A
C979        H986   1.084       .  S
C980        C981   1.406       .  A
C981        C982   1.410       .  A
C981      Br2236   1.916       .  S
C982        C983   1.413       .  A
C982        H987   1.084       .  S
C983        C984   1.408       .  A
C984       Br985   1.915       .  S
Br988      C2229   1.916       .  S
C989        C990   1.392       .  A
C989        C994   1.380       .  A
C989        H996   1.086       .  S
C990        C991   1.399       .  A
C991        C992   1.383       .  A
C991       Br998   1.912       .  S
C992        C993   1.395       .  A
C992        H997   1.086       .  S
C993        C994   1.402       .  A
C994       Br995   1.908       .  S
C999       C1000   1.415       .  A
C999       C1004   1.401       .  A
C999       H1006   1.083       .  S
C1000      C1001   1.411       .  A
C1001      C1002   1.400       .  A
C1001     Br1008   1.922       .  S
C1002      C1003   1.413       .  A
C1002      H1007   1.083       .  S
C1003      C1004   1.408       .  A
C1004     Br1005   1.920       .  S
C1009      C1010   1.408       .  A
C1009      C1014   1.408       .  A
C1009      H1016   1.083       .  S
C1010      C1011   1.414       .  A
C1011      C1012   1.398       .  A
C1011     Br1018   1.911       .  S
C1012      C1013   1.400       .  A
C1012      H1017   1.085       .  S
C1013      C1014   1.410       .  A
C1014     Br1015   1.917       .  S
C1019      C1020   1.401       .  A
C1019      C1024   1.389       .  A
C1019      H1026   1.080       .  S
C1020      C1021   1.405       .  A
C1021      C1022   1.411       .  A
C1022      C1023   1.414       .  A
C1022      H1027   1.083       .  S
C1023      C1024   1.411       .  A
C1024     Br1025   1.919       .  S
C1029      C1030   1.416       .  A
C1029      C1034   1.411       .  A
C1029      H1036   1.083       .  S
C1030      C1031   1.416       .  A
C1031      C1032   1.407       .  A
C1031     Br1038   1.921       .  S
C1032      C1033   1.412       .  A
C1032      H1037   1.084       .  S
C1033      C1034   1.411       .  A
C1034     Br1035   1.918       .  S
C1039      C1040   1.418       .  A
C1039      C1044   1.405       .  A
C1039      H1046   1.084       .  S
C1040      C1041   1.407       .  A
C1041      C1042   1.409       .  A
C1041     Br1048   1.920       .  S
C1042      C1043   1.420       .  A
C1042      H1047   1.083       .  S
C1043      C1044   1.408       .  A
C1044     Br1045   1.919       .  S
C1049      C1050   1.400       .  A
C1049      C2302   1.379       .  A
C1049      H1056   1.084       .  S
C1050      C1051   1.408       .  A
C1051      C2300   1.387       .  A
C1051     Br1058   1.921       .  S
C1052      C2299   1.387   1_455  A
C1052      C1053   1.401       .  A
C1052      H1057   1.084       .  S
C1053      C1054   1.406       .  A
C1054      C2297   1.379   1_455  A
C1054     Br1055   1.923       .  S
C1059      C1060   1.404       .  A
C1059      C1064   1.406       .  A
C1059      H1066   1.084       .  S
C1060      C1061   1.410       .  A
C1061      C1062   1.396       .  A
C1061     Br1068   1.918       .  S
C1062      C1063   1.400       .  A
C1062      H1067   1.083       .  S
C1063      C1064   1.412       .  A
C1064     Br1065   1.919       .  S
C1069      C1070   1.398       .  A
C1069      C1074   1.383       .  A
C1069      H1076   1.082       .  S
C1070      C1071   1.415       .  A
C1071      C1072   1.414       .  A
C1071     Br1078   1.915       .  S
C1072      C1073   1.407       .  A
C1072      H1077   1.083       .  S
C1073      C1074   1.407       .  A
C1074     Br1075   1.911       .  S
C1079      C1080   1.405       .  A
C1079      C1084   1.405       .  A
C1079      H1086   1.083       .  S
C1080      C1081   1.404       .  A
C1081      C1082   1.397       .  A
C1081     Br1088   1.916       .  S
C1082      C1083   1.405       .  A
C1082      H1087   1.082       .  S
C1083      C1084   1.409       .  A
C1084     Br1085   1.918       .  S
C1089      C1090   1.401       .  A
C1089      C1094   1.406       .  A
C1089      H1096   1.083       .  S
C1090      C1091   1.430       .  A
C1091      C1092   1.405       .  A
C1091     Br1098   1.921       .  S
C1092      C1093   1.400       .  A
C1092      H1097   1.083       .  S
C1093      C1094   1.430       .  A
C1094     Br1095   1.925       .  S
C1099      C1100   1.393       .  A
C1099      C1104   1.408       .  A
C1099      H1106   1.083       .  S
C1100      C1101   1.443       .  A
C1101      C1102   1.394       .  A
C1101     Br1108   1.932       .  S
C1102      C1103   1.384       .  A
C1102      H1107   1.084       .  S
C1103      C1104   1.437       .  A
C1104     Br1105   1.926       .  S
C1109      C1110   1.402       .  A
C1109      H1116   1.084       .  S
C1110      C1111   1.391   1_565  A
C1111     Br1118   1.923   1_545  S
C1112      C1113   1.402       .  A
C1112      H1117   1.079       .  S
C1113      C1114   1.395       .  A
C1114     Br2363   1.918       .  S
Br1115     C2362   1.918   1_455  S
C1119      C1120   1.417       .  A
C1119      C1124   1.409       .  A
C1119      H1126   1.082       .  S
C1120      C1121   1.416       .  A
C1121      C1122   1.403       .  A
C1122      C1123   1.407       .  A
C1122      H1127   1.082       .  S
C1123      C1124   1.405       .  A
C1124     Br1125   1.917       .  S
C1129      C1130   1.403       .  A
C1129      C1134   1.383       .  A
C1129      H1136   1.083       .  S
C1130      C1131   1.414       .  A
C1131      C1132   1.411       .  A
C1131     Br2386   1.918       .  S
C1132      C1133   1.411       .  A
C1132      H1137   1.083       .  S
C1133      C1134   1.418       .  A
C1134     Br1135   1.928       .  S
Br1138     C2379   1.918   1_455  S
C1139      C1140   1.406       .  A
C1139      C1144   1.399       .  A
C1139      H1146   1.084       .  S
C1140      C1141   1.402       .  A
C1141      C1142   1.400       .  A
C1141     Br2396   1.917       .  S
C1142      C1143   1.406       .  A
C1142      H1147   1.082       .  S
C1143      C1144   1.404       .  A
C1144     Br1145   1.921       .  S
Br1148     C2389   1.917       .  S
C1149      C1150   1.417       .  A
C1149      C1154   1.398       .  A
C1149      H1156   1.084       .  S
C1150      C1151   1.407       .  A
C1151      C1152   1.412       .  A
C1151     Br1158   1.918       .  S
C1152      C1153   1.420       .  A
C1152      H1157   1.083       .  S
C1153      C1154   1.408       .  A
C1159      C1160   1.412       .  A
C1159      C1164   1.407       .  A
C1159      H1166   1.084       .  S
C1160      C1161   1.407       .  A
C1161      C1162   1.410       .  A
C1161     Br1168   1.912       .  S
C1162      C1163   1.417       .  A
C1162      H1167   1.083       .  S
C1163      C1164   1.417       .  A
C1164     Br1165   1.921       .  S
C1169      C1170   1.394       .  A
C1169      C1174   1.378       .  A
C1169      H1176   1.084       .  S
C1170      C1171   1.400       .  A
C1171      C1172   1.373       .  A
C1171     Br2426   1.921       .  S
C1172      C1173   1.403       .  A
C1173      C1174   1.413       .  A
C1174     Br1175   1.923       .  S
Br1178     C2419   1.921   1_455  S
C1179      C1180   1.405       .  A
C1179      C1184   1.403       .  A
C1179      H1186   1.081       .  S
C1180      C1181   1.411       .  A
C1181      C1182   1.392       .  A
C1181     Br1188   1.907       .  S
C1182      C1183   1.396       .  A
C1182      H1187   1.084       .  S
C1183      C1184   1.409       .  A
C1184     Br1185   1.918   1_565  S
C1189      C1190   1.406       .  A
C1189      C1194   1.410       .  A
C1189      H1196   1.084       .  S
C1190      C1191   1.409       .  A
C1191      C1192   1.391       .  A
C1191     Br1198   1.923       .  S
C1192      C1193   1.404       .  A
C1192      H1197   1.081       .  S
C1193      C1194   1.415       .  A
C1194     Br1195   1.914       .  S
C1199      C1200   1.421       .  A
C1199      C1204   1.408       .  A
C1199      H1206   1.082       .  S
C1200      C1201   1.407       .  A
C1201      C1202   1.405       .  A
C1201     Br1208   1.919       .  S
C1202      C1203   1.419       .  A
C1202      H1207   1.084       .  S
C1203      C1204   1.404       .  A
C1204     Br1205   1.918       .  S
C1209      C1210   1.401       .  A
C1209      C2462   1.380   1_455  A
C1209      H1216   1.084       .  S
C1210      C1211   1.406       .  A
C1211      C2460   1.372   1_455  A
C1212      C2459   1.372       .  A
C1212      C1213   1.399       .  A
C1212      H1217   1.085       .  S
C1213      C1214   1.404       .  A
C1214      C2457   1.380       .  A
C1214     Br1215   1.922       .  S
C1219      C1220   1.421       .  A
C1219      C1224   1.413       .  A
C1219      H1226   1.082       .  S
C1220      C1221   1.409       .  A
C1221      C1222   1.404       .  A
C1222      C1223   1.419       .  A
C1222      H1227   1.083       .  S
C1223      C1224   1.408       .  A
C1224     Br1225   1.916       .  S
C1229      C1230   1.414       .  A
C1229      C1234   1.403       .  A
C1229      H1236   1.082       .  S
C1230      C1231   1.407       .  A
C1231      C1232   1.404       .  A
C1231     Br1238   1.919       .  S
C1232      C1233   1.414       .  A
C1232      H1237   1.082       .  S
C1233      C1234   1.405       .  A
C1234     Br1235   1.918       .  S
C1239      C1240   1.405       .  A
C1239      H1246   1.084       .  S
C1240      C1241   1.407       .  A
C1241      C1242   1.404       .  A
C1241     Br1248   1.920       .  S
C1242      C1243   1.407       .  A
C1242      H1247   1.084       .  S
C1244     Br1245   1.918       .  S
O1249      C1264   1.266       .  A
O1249     Al1257   1.932       .  S
C1250      O1260   1.268       .  A
C1250      O1251   1.256       .  A
C1250      C1854   1.493       .  S
O1251     Al1253   1.902       .  S
O1252      C1254   1.252       .  A
O1252     Al1253   1.856       .  S
Al1253     O1261   1.862       .  S
Al1253     O1263   1.880       .  S
Al1253     O1262   1.778       .  S
C1254      O1267   1.255       .  A
C1254      C1837   1.431       .  S
O1255      C1265   1.263       .  A
O1255     Al1257   1.920       .  S
O1256      C1269   1.287       .  A
O1256     Al1266   1.983       .  S
Al1257     O1270   1.843       .  S
Al1257     O1267   1.849       .  S
Al1257     O1262   1.775       .  S
O1258      C1265   1.261       .  A
O1258     Al1266   1.911       .  S
O1259      C1268   1.280       .  A
O1259     Al1266   2.001       .  S
O1260     Al1266   1.948       .  S
O1261      C1268   1.253       .  A
O1262     Al1266   1.786       .  S
O1263      C1264   1.256       .  A
C1264      C1814   1.479       .  S
C1265      C1864   1.475       .  S
C1268      C1824   1.506       .  S
C1269      O1270   1.255       .  A
C1269      C1847   1.507       .  S
O1271     Al1279   1.909       .  S
C1272      O1282   1.269       .  A
C1272      O1273   1.258       .  A
C1272      C1857   1.492       .  S
O1273     Al1275   1.906       .  S
O1274      C1276   1.251       .  A
O1274     Al1275   1.847       .  S
Al1275     O1283   1.879       .  S
Al1275     O1285   1.894       .  S
C1276      O1289   1.252       .  A
C1276      C1794   1.426       .  S
O1277      C1287   1.257       .  A
O1277     Al1279   1.903       .  S
O1278      C1291   1.286       .  A
O1278     Al1288   1.979       .  S
Al1279     O1292   1.840       .  S
Al1279     O1284   1.775       .  S
O1280      C1287   1.261       .  A
O1280     Al1288   1.921       .  S
O1281      C1290   1.277       .  A
O1283      C1290   1.259       .  A
O1284     Al1288   1.785       .  S
O1285      C1286   1.257       .  A
C1286      C1764   1.466       .  S
C1287      C1804   1.481       .  S
C1290      C1787   1.512       .  S
C1291      O1292   1.257       .  A
C1291      C1774   1.501       .  S
O1293      C1308   1.264       .  A
O1293     Al1301   1.918       .  S
C1294      O1928   1.267       .  A
C1294      O1295   1.263       .  A
C1294      C1744   1.507       .  S
O1295     Al1297   1.923       .  S
O1296      C1298   1.246       .  A
O1296     Al1297   1.843       .  S
Al1297     O1305   1.872       .  S
Al1297     O1307   1.895       .  S
Al1297     O1930   1.785       .  S
C1298      O1935   1.254       .  A
C1298      C1797   1.444       .  S
O1299      C1309   1.264       .  A
O1299     Al1301   1.932       .  S
O1300      C1313   1.286       .  A
O1300     Al1310   1.974       .  S
Al1301     O1314   1.860       .  S
Al1301     O1311   1.852       .  S
Al1301     O1306   1.784       .  S
O1302      C1309   1.254       .  A
O1302     Al1310   1.883       .  S
O1303      C1936   1.271   1_545  A
O1303     Al1310   1.963       .  S
O1304      C1918   1.267   1_545  A
O1304     Al1310   1.935       .  S
O1305      C1312   1.254       .  A
O1306     Al1921   1.785   1_545  S
O1306     Al1310   1.780       .  S
O1307      C1932   1.259       .  A
C1308      O1931   1.259   1_545  A
C1308      C2491   1.472   1_545  S
C1309      C1757   1.490       .  S
O1311      C1922   1.254   1_545  A
C1312      O1927   1.271       .  A
C1312      C1777   1.501       .  S
C1313      O1314   1.258       .  A
C1313      C1784   1.496       .  S
O1315      C1330   1.262       .  A
O1315     Al1323   1.912       .  S
C1316      O1326   1.266       .  A
C1316      O1317   1.257       .  A
C1316      C1747   1.492       .  S
O1317     Al1319   1.906       .  S
O1318      C1320   1.251       .  A
O1318     Al1319   1.861       .  S
Al1319     O1327   1.865       .  S
Al1319     O1329   1.903       .  S
Al1319     O1328   1.782       .  S
C1320      O1333   1.245       .  A
C1320      C1734   1.408       .  S
O1321      C1331   1.263       .  A
O1321     Al1323   1.916       .  S
O1322      C1335   1.288       .  A
O1322     Al1332   1.995       .  S
Al1323     O1336   1.803       .  S
Al1323     O1333   1.824       .  S
Al1323     O1328   1.778       .  S
O1324      C1331   1.260       .  A
O1324     Al1332   1.906       .  S
O1325      C1334   1.281       .  A
O1325     Al1332   1.992       .  S
O1326     Al1332   1.944       .  S
O1327      C1334   1.252       .  A
O1328     Al1332   1.791       .  S
O1329      C1330   1.260       .  A
C1330      C1704   1.471       .  S
C1331      C1767   1.469       .  S
C1334      C1714   1.509       .  S
C1335      O1336   1.238       .  A
C1335      C1724   1.502       .  S
O1337     Al1345   1.978       .  S
C1338      O1348   1.278       .  A
C1338      O1339   1.262       .  A
C1338      C1684   1.476       .  S
O1339     Al1341   1.876       .  S
O1340      C1342   1.248       .  A
O1340     Al1341   1.853       .  S
Al1341     O1349   1.841       .  S
Al1341     O1351   1.877       .  S
C1342      O1355   1.255   1_655  A
C1342      C1737   1.417       .  S
O1343      C1353   1.267       .  A
O1343     Al1345   1.954       .  S
O1344      C1357   1.283       .  A
O1344     Al1354   1.995       .  S
Al1345     O1358   1.859       .  S
Al1345     O1350   1.783       .  S
O1346      C1353   1.259       .  A
O1346     Al1354   1.866       .  S
O1347      C1356   1.279       .  A
O1349      C1356   1.240       .  A
O1350     Al1354   1.766       .  S
O1351      C1352   1.263       .  A
C1352      C1754   1.490       .  S
C1353      C1694   1.483       .  S
C1356      C1727   1.496       .  S
C1357      O1358   1.251       .  A
C1357      C1717   1.507       .  S
O1359      C1998   1.267       .  A
O1359     Al1367   1.934       .  S
C1360      O1370   1.263       .  A
C1360      O1361   1.258       .  A
C1360      C1687   1.477       .  S
O1361     Al1363   1.916       .  S
O1362      C1364   1.256       .  A
O1362     Al1363   1.876       .  S
Al1363     O1371   1.865       .  S
Al1363     O1373   1.878       .  S
Al1363     O1372   1.784       .  S
C1364      O1377   1.255       .  A
C1364      C1674   1.446       .  S
O1365      C1375   1.263       .  A
O1365     Al1367   1.920       .  S
O1366      C1379   1.284       .  A
O1366     Al1376   1.964       .  S
Al1367     O1380   1.864       .  S
Al1367     O2001   1.860       .  S
Al1367     O1996   1.781       .  S
O1368      C1375   1.261       .  A
O1368     Al1376   1.908       .  S
O1369      C1378   1.277       .  A
O1369     Al2000   1.993   1_545  S
O1370     Al2000   1.916   1_545  S
O1371      C1378   1.253       .  A
O1372     Al1991   1.781   1_545  S
O1372     Al2000   1.786   1_545  S
O1373      C1374   1.257       .  A
C1374      O1983   1.267   1_545  A
C1374      C1644   1.473       .  S
C1375      C1707   1.478       .  S
Al1376     O1993   1.993       .  S
Al1376     O1994   1.916       .  S
Al1376     O1996   1.786       .  S
O1377     Al1991   1.860   1_545  S
C1378      C1667   1.506       .  S
C1379      O1380   1.257       .  A
C1379      C1657   1.498       .  S
O1381      C1396   1.264       .  A
O1381     Al1389   1.931       .  S
C1382      O1392   1.265       .  A
C1382      O1383   1.255       .  A
C1382      C1627   1.492       .  S
O1383     Al1385   1.901       .  S
O1384      C1386   1.256       .  A
O1384     Al1385   1.871       .  S
Al1385     O1393   1.876       .  S
Al1385     O1395   1.898       .  S
Al1385     O1394   1.782       .  S
C1386      O1399   1.259       .  A
C1386      C1677   1.447       .  S
O1387      C1397   1.261       .  A
O1387     Al1389   1.912       .  S
O1388      C1401   1.282       .  A
O1388     Al1398   1.967       .  S
Al1389     O1402   1.853       .  S
Al1389     O1399   1.874       .  S
Al1389     O1394   1.773       .  S
O1390      C1397   1.266       .  A
O1390     Al1398   1.934       .  S
O1391      C1400   1.283       .  A
O1391     Al1398   2.004       .  S
O1392     Al1398   1.939       .  S
O1393      C1400   1.259       .  A
O1394     Al1398   1.779       .  S
O1395      C1396   1.259       .  A
C1396      C1697   1.478       .  S
C1397      C1634   1.493       .  S
C1400      C1654   1.510       .  S
C1401      O1402   1.256       .  A
C1401      C1664   1.502       .  S
O1403      C1418   1.269       .  A
O1403     Al1411   1.958       .  S
C1404      O1414   1.276       .  A
C1404      O1405   1.259       .  A
C1404      C1624   1.496       .  S
O1405     Al1407   1.865       .  S
O1406      C1408   1.257       .  A
O1406     Al1407   1.892       .  S
Al1407     O1415   1.883       .  S
Al1407     O1417   1.876       .  S
C1408      C1617   1.428       .  S
O1409      C1419   1.265       .  A
O1409     Al1411   1.942       .  S
O1410      C1423   1.282       .  A
O1410     Al1420   2.008       .  S
Al1411     O1424   1.871       .  S
Al1411     O1421   1.869       .  S
Al1411     O1416   1.781       .  S
O1412      C1419   1.262       .  A
O1412     Al1420   1.897       .  S
O1413     Al1420   1.968       .  S
O1415      C1422   1.254       .  A
O1416     Al1420   1.773       .  S
C1419      C1647   1.485       .  S
C1422      C1604   1.492       .  S
C1423      O1424   1.258       .  A
C1423      C1597   1.513       .  S
O1425      C2064   1.268       .  A
O1425     Al1433   1.936       .  S
C1426      O1436   1.261       .  A
C1426      O1427   1.249       .  A
C1426      C1567   1.486       .  S
O1427     Al1429   1.883       .  S
O1428      C1430   1.254       .  A
O1428     Al1429   1.871       .  S
Al1429     O1437   1.882       .  S
Al1429     O1439   1.874       .  S
Al1429     O1438   1.791       .  S
C1430      O1443   1.250       .  A
C1430      C1614   1.423       .  S
O1431      C1441   1.264       .  A
O1431     Al1433   1.921       .  S
O1432      C1445   1.279       .  A
O1432     Al1442   1.969       .  S
Al1433     O1446   1.849       .  S
Al1433     O2067   1.860       .  S
Al1433     O2062   1.801       .  S
O1434      C1441   1.263       .  A
O1434     Al1442   1.907       .  S
O1435      C1444   1.279       .  A
O1435     Al2066   1.980   1_545  S
O1436     Al2066   1.933   1_545  S
O1437      C1444   1.261       .  A
O1438     Al2057   1.801   1_545  S
O1438     Al2066   1.789   1_545  S
O1439      C1440   1.255       .  A
C1440      O2049   1.268   1_545  A
C1440      C1637   1.475       .  S
C1441      C1577   1.481       .  S
Al1442     O2059   1.980       .  S
Al1442     O2060   1.933       .  S
Al1442     O2062   1.789       .  S
O1443     Al2057   1.860   1_545  S
C1444      C1594   1.511       .  S
C1445      O1446   1.249       .  A
C1445      C1607   1.490       .  S
O1447      C1462   1.261       .  A
O1447     Al1455   1.910       .  S
C1448      O1458   1.267       .  A
C1448      O1449   1.260       .  A
C1448      C1564   1.501       .  S
O1449     Al1451   1.912   1_554  S
O1450      C1452   1.250       .  A
O1450     Al1451   1.856   1_554  S
Al1451     O1459   1.871       .  S
Al1451     O1461   1.895       .  S
Al1451     O1460   1.783   1_556  S
C1452      O1465   1.255   1_554  A
C1452      C1557   1.437       .  S
O1453      C1463   1.260       .  A
O1453     Al1455   1.907   1_554  S
O1454      C1467   1.286   1_554  A
O1454     Al1464   1.981       .  S
Al1455     O1468   1.851       .  S
Al1455     O1465   1.857       .  S
Al1455     O1460   1.776   1_556  S
O1456      C1463   1.262       .  A
O1456     Al1464   1.920       .  S
O1457      C1466   1.279       .  A
O1457     Al1464   1.999       .  S
O1458     Al1464   1.936       .  S
O1459      C1466   1.255   1_556  A
O1460     Al1464   1.784       .  S
O1461      C1462   1.258       .  A
C1462      C1527   1.468       .  S
C1463      C1584   1.487       .  S
C1466      C1547   1.512       .  S
C1467      O1468   1.257       .  A
C1467      C1537   1.505       .  S
O1469      C1484   1.265   1_655  A
O1469     Al1477   1.936       .  S
C1470      O1480   1.267       .  A
C1470      O1471   1.255       .  A
C1470      C1514   1.494       .  S
O1471     Al1473   1.904       .  S
O1472      C1474   1.257       .  A
O1472     Al1473   1.862       .  S
Al1473     O1481   1.877   1_556  S
Al1473     O1483   1.874   1_556  S
C1474      C1554   1.444       .  S
O1475      C1485   1.263       .  A
O1475     Al1477   1.928   1_556  S
O1476      C1489   1.285       .  A
O1476     Al1486   1.974       .  S
Al1477     O1490   1.849       .  S
Al1477     O1487   1.862       .  S
Al1477     O1482   1.789   1_554  S
O1478      C1485   1.261       .  A
O1478     Al1486   1.898       .  S
O1479     Al1486   1.989   1_455  S
O1481      C1488   1.258   1_554  A
O1482     Al1486   1.779       .  S
C1485      C1817   1.492       .  S
C1488      C1534   1.509       .  S
C1489      O1490   1.255   1_556  A
C1489      C1544   1.496   1_556  S
O1491      C1506   1.263       .  A
O1491     Al1499   1.913       .  S
C1492      O2126   1.267       .  A
C1492      O1493   1.257       .  A
C1492      C1517   1.482       .  S
O1493     Al1495   1.911       .  S
O1494      C1496   1.252       .  A
O1494     Al1495   1.850       .  S
Al1495     O1503   1.871       .  S
Al1495     O1505   1.882       .  S
Al1495     O2128   1.780       .  S
C1496      O2133   1.251       .  A
C1496      C1834   1.434       .  S
O1497      C1507   1.261       .  A
O1497     Al1499   1.914       .  S
O1498      C1511   1.286       .  A
O1498     Al1508   1.978       .  S
Al1499     O1512   1.847       .  S
Al1499     O1509   1.852       .  S
Al1499     O1504   1.775       .  S
O1500      C1507   1.263       .  A
O1500     Al1508   1.924       .  S
O1501      C2134   1.279   1_545  A
O1501     Al1508   1.997       .  S
O1502      C2116   1.267   1_545  A
O1502     Al1508   1.947       .  S
O1503      C1510   1.254       .  A
O1504     Al2119   1.780   1_545  S
O1504     Al1508   1.778       .  S
O1505      C2130   1.257       .  A
C1506      O2129   1.257   1_545  A
C1506      C2431   1.463   1_545  S
C1507      C1524   1.482       .  S
O1509      C2120   1.251   1_545  A
C1510      O2125   1.279       .  A
C1510      C1844   1.510       .  S
C1511      O1512   1.256       .  A
C1511      C1827   1.499       .  S
C1513      C1514   1.413       .  A
C1513      C1518   1.406       .  A
C1513      H1520   1.083       .  S
C1514      C1515   1.413       .  A
C1515      C1516   1.406       .  A
C1516      C1517   1.406       .  A
C1516      H1521   1.083       .  S
C1517      C1518   1.404       .  A
C1518     Br1519   1.917       .  S
C1523      C1524   1.405       .  A
C1523      C1528   1.405       .  A
C1523      H1530   1.083       .  S
C1524      C1525   1.411       .  A
C1525      C1526   1.394       .  A
C1525     Br1532   1.905       .  S
C1526      C1527   1.395       .  A
C1526      H1531   1.084       .  S
C1527      C1528   1.411       .  A
C1528     Br1529   1.918       .  S
C1533      C1534   1.421   1_554  A
C1533      C1538   1.414       .  A
C1533      H1540   1.083       .  S
C1534      C1535   1.410       .  A
C1535      C1536   1.403       .  A
C1535     Br1542   1.921       .  S
C1536      C1537   1.417       .  A
C1536      H1541   1.084       .  S
C1537      C1538   1.407   1_556  A
C1538     Br1539   1.918       .  S
C1543      C1544   1.413       .  A
C1543      C1548   1.408       .  A
C1543      H1550   1.084       .  S
C1544      C1545   1.408   1_554  A
C1545      C1546   1.411       .  A
C1545     Br1552   1.917       .  S
C1546      C1547   1.418   1_556  A
C1546      H1551   1.083       .  S
C1547      C1548   1.416       .  A
C1548     Br1549   1.921       .  S
C1553      C1554   1.402       .  A
C1553      C2182   1.380       .  A
C1553      H1560   1.084       .  S
C1554      C1555   1.410   1_556  A
C1555      C2180   1.377       .  A
C1556      C2179   1.377   1_545  A
C1556      C1557   1.397       .  A
C1556      H1561   1.085       .  S
C1557      C1558   1.405   1_554  A
C1558      C2177   1.380   1_545  A
C1558     Br1559   1.923       .  S
C1563      C1564   1.417       .  A
C1563      C1568   1.405       .  A
C1563      H1570   1.083       .  S
C1564      C1565   1.415       .  A
C1565      C1566   1.403       .  A
C1565     Br1572   1.922       .  S
C1566      C1567   1.407       .  A
C1566      H1571   1.084       .  S
C1567      C1568   1.403       .  A
C1568     Br1569   1.917       .  S
C1573      C1574   1.402       .  A
C1573      C1578   1.386       .  A
C1573      H1580   1.085       .  S
C1574      C1575   1.407       .  A
C1575      C1576   1.415       .  A
C1576      C1577   1.412       .  A
C1576      H1581   1.083       .  S
C1577      C1578   1.407       .  A
C1578     Br1579   1.915       .  S
C1583      C1584   1.407       .  A
C1583      C1588   1.407       .  A
C1583      H1590   1.084       .  S
C1584      C1585   1.413       .  A
C1585      C1586   1.391       .  A
C1585     Br1592   1.911       .  S
C1586      C1587   1.401       .  A
C1586      H1591   1.084       .  S
C1587      C1588   1.417       .  A
C1588     Br1589   1.919       .  S
C1593      C1594   1.419       .  A
C1593      C1598   1.413       .  A
C1593      H1600   1.083       .  S
C1594      C1595   1.410       .  A
C1595      C1596   1.406       .  A
C1595     Br2226   1.920       .  S
C1596      C1597   1.418       .  A
C1596      H1601   1.082       .  S
C1597      C1598   1.409       .  A
C1598     Br1599   1.917       .  S
Br1602     C2219   1.920       .  S
C1603      C1604   1.411       .  A
C1603      C1608   1.412       .  A
C1603      H1610   1.084       .  S
C1604      C1605   1.406       .  A
C1605      C1606   1.410       .  A
C1606      C1607   1.413       .  A
C1606      H1611   1.084       .  S
C1607      C1608   1.408       .  A
C1608     Br1609   1.915       .  S
C1613      C1614   1.392       .  A
C1613      C1618   1.380       .  A
C1613      H1620   1.086       .  S
C1614      C1615   1.399       .  A
C1615      C1616   1.383       .  A
C1615     Br1622   1.912       .  S
C1616      C1617   1.395       .  A
C1616      H1621   1.086       .  S
C1617      C1618   1.402       .  A
C1618     Br1619   1.908       .  S
C1623      C1624   1.415       .  A
C1623      C1628   1.401       .  A
C1623      H1630   1.083       .  S
C1624      C1625   1.411       .  A
C1625      C1626   1.400       .  A
C1625     Br1632   1.922       .  S
C1626      C1627   1.413       .  A
C1626      H1631   1.083       .  S
C1627      C1628   1.408       .  A
C1628     Br1629   1.920       .  S
C1633      C1634   1.408       .  A
C1633      C1638   1.408       .  A
C1633      H1640   1.083       .  S
C1634      C1635   1.414       .  A
C1635      C1636   1.398       .  A
C1635     Br1642   1.911       .  S
C1636      C1637   1.400       .  A
C1636      H1641   1.085       .  S
C1637      C1638   1.410       .  A
C1638     Br1639   1.917   1_545  S
C1643      C1644   1.401       .  A
C1643      C1648   1.389       .  A
C1643      H1650   1.080       .  S
C1644      C1645   1.405       .  A
C1645      C1646   1.411       .  A
C1645     Br2276   1.914       .  S
C1646      C1647   1.414       .  A
C1646      H1651   1.083       .  S
C1647      C1648   1.411       .  A
C1648     Br1649   1.919       .  S
Br1652     C2269   1.914       .  S
C1653      C1654   1.416       .  A
C1653      C1658   1.411       .  A
C1653      H1660   1.083       .  S
C1654      C1655   1.416       .  A
C1655      C1656   1.407       .  A
C1655     Br1662   1.921       .  S
C1656      C1657   1.412       .  A
C1656      H1661   1.084       .  S
C1657      C1658   1.411       .  A
C1658     Br1659   1.918       .  S
C1663      C1664   1.418       .  A
C1663      C1668   1.405       .  A
C1663      H1670   1.084       .  S
C1664      C1665   1.407       .  A
C1665      C1666   1.409       .  A
C1665     Br1672   1.920       .  S
C1666      C1667   1.420       .  A
C1666      H1671   1.083       .  S
C1667      C1668   1.408       .  A
C1668     Br1669   1.919       .  S
C1673      C1674   1.400       .  A
C1673      H1680   1.084       .  S
C1674      C1675   1.408       .  A
C1675     Br1682   1.921       .  S
C1676      C1677   1.401       .  A
C1676      H1681   1.084       .  S
C1677      C1678   1.406       .  A
C1678     Br1679   1.923       .  S
C1683      C1684   1.404       .  A
C1683      C1688   1.406       .  A
C1683      H1690   1.084       .  S
C1684      C1685   1.410       .  A
C1685      C1686   1.396       .  A
C1685     Br1692   1.918       .  S
C1686      C1687   1.400       .  A
C1686      H1691   1.083       .  S
C1687      C1688   1.412       .  A
C1688     Br1689   1.919       .  S
C1693      C1694   1.398       .  A
C1693      C1698   1.383       .  A
C1693      H1700   1.082       .  S
C1694      C1695   1.415       .  A
C1695      C1696   1.414       .  A
C1695     Br1702   1.915       .  S
C1696      C1697   1.407       .  A
C1696      H1701   1.083       .  S
C1697      C1698   1.407       .  A
C1698     Br1699   1.911       .  S
C1703      C1704   1.405       .  A
C1703      C1708   1.405       .  A
C1703      H1710   1.083       .  S
C1704      C1705   1.404       .  A
C1705      C1706   1.397       .  A
C1705     Br1712   1.916       .  S
C1706      C1707   1.405       .  A
C1706      H1711   1.082       .  S
C1707      C1708   1.409       .  A
C1708     Br1709   1.918       .  S
C1713      C1714   1.401       .  A
C1713      C1718   1.406       .  A
C1713      H1720   1.083       .  S
C1714      C1715   1.430       .  A
C1715      C1716   1.405       .  A
C1715     Br1722   1.921       .  S
C1716      C1717   1.400       .  A
C1716      H1721   1.083       .  S
C1717      C1718   1.430       .  A
C1718     Br1719   1.925       .  S
C1723      C1724   1.393       .  A
C1723      C1728   1.408       .  A
C1723      H1730   1.083       .  S
C1724      C1725   1.443       .  A
C1725      C1726   1.394       .  A
C1725     Br1732   1.932       .  S
C1726      C1727   1.384       .  A
C1726      H1731   1.084       .  S
C1727      C1728   1.437       .  A
C1728     Br1729   1.926       .  S
C1733      C1734   1.402       .  A
C1733      C2362   1.383       .  A
C1733      H1740   1.084       .  S
C1734      C1735   1.391       .  A
C1735      C2360   1.370       .  A
C1735     Br1742   1.923       .  S
C1736      C2359   1.370       .  A
C1736      C1737   1.402       .  A
C1736      H1741   1.079       .  S
C1737      C1738   1.395       .  A
C1738      C2357   1.383   1_545  A
C1743      C1744   1.417       .  A
C1743      C1748   1.409       .  A
C1743      H1750   1.082       .  S
C1744      C1745   1.416       .  A
C1745      C1746   1.403       .  A
C1745     Br2376   1.919       .  S
C1746      C1747   1.407       .  A
C1746      H1751   1.082       .  S
C1747      C1748   1.405       .  A
C1748     Br1749   1.917       .  S
Br1752     C2369   1.919   1_545  S
C1753      C1754   1.403       .  A
C1753      C1758   1.383       .  A
C1753      H1760   1.083       .  S
C1754      C1755   1.414       .  A
C1755      C1756   1.411       .  A
C1756      C1757   1.411       .  A
C1756      H1761   1.083       .  S
C1757      C1758   1.418       .  A
C1758     Br1759   1.928       .  S
C1763      C1764   1.406       .  A
C1763      C1768   1.399       .  A
C1763      H1770   1.084       .  S
C1764      C1765   1.402       .  A
C1765      C1766   1.400       .  A
C1766      C1767   1.406       .  A
C1766      H1771   1.082       .  S
C1767      C1768   1.404       .  A
C1768     Br1769   1.921       .  S
C1773      C1774   1.417       .  A
C1773      C1778   1.398       .  A
C1773      H1780   1.084       .  S
C1774      C1775   1.407       .  A
C1775      C1776   1.412       .  A
C1775     Br1782   1.918       .  S
C1776      C1777   1.420       .  A
C1776      H1781   1.083       .  S
C1777      C1778   1.408       .  A
C1778     Br2403   1.923       .  S
Br1779     C2402   1.923   1_545  S
C1783      C1784   1.412       .  A
C1783      C1788   1.407       .  A
C1783      H1790   1.084       .  S
C1784      C1785   1.407       .  A
C1785      C1786   1.410       .  A
C1785     Br1792   1.912       .  S
C1786      C1787   1.417       .  A
C1786      H1791   1.083       .  S
C1787      C1788   1.417       .  A
C1788     Br1789   1.921       .  S
C1793      C1794   1.394       .  A
C1793      C1798   1.378       .  A
C1793      H1800   1.084       .  S
C1794      C1795   1.400       .  A
C1795      C1796   1.373       .  A
C1796      C1797   1.403       .  A
C1796      H2425   1.084       .  S
C1797      C1798   1.413       .  A
C1798     Br1799   1.923       .  S
H1801      C2420   1.084   1_545  S
C1803      C1804   1.405       .  A
C1803      C1808   1.403       .  A
C1803      H1810   1.081       .  S
C1804      C1805   1.411       .  A
C1805      C1806   1.392       .  A
C1805     Br1812   1.907       .  S
C1806      C1807   1.396       .  A
C1806      H1811   1.084       .  S
C1807      C2130   1.463       .  S
C1807      C1808   1.409       .  A
C1808     Br1809   1.918       .  S
C1813      C1814   1.406       .  A
C1813      C1818   1.410       .  A
C1813      H1820   1.084       .  S
C1814      C1815   1.409       .  A
C1815      C1816   1.391       .  A
C1815     Br1822   1.923       .  S
C1816      C1817   1.404       .  A
C1816      H1821   1.081       .  S
C1817      C1818   1.415       .  A
C1818     Br1819   1.914       .  S
C1823      C1824   1.421       .  A
C1823      C1828   1.408       .  A
C1823      H1830   1.082       .  S
C1824      C1825   1.407       .  A
C1825      C1826   1.405       .  A
C1825     Br1832   1.919       .  S
C1826      C1827   1.419       .  A
C1826      H1831   1.084       .  S
C1827      C1828   1.404       .  A
C1828     Br1829   1.918       .  S
C1833      C1834   1.401       .  A
C1833      H1840   1.084       .  S
C1834      C1835   1.406       .  A
C1835     Br2466   1.927       .  S
C1836      C1837   1.399       .  A
C1836      H1841   1.085       .  S
C1837      C1838   1.404       .  A
C1838     Br1839   1.922       .  S
Br1842     C2459   1.927   1_545  S
C1843      C1844   1.421       .  A
C1843      C1848   1.413       .  A
C1843      H1850   1.082       .  S
C1844      C1845   1.409       .  A
C1845      C1846   1.404       .  A
C1845     Br2476   1.921       .  S
C1846      C1847   1.419       .  A
C1846      H1851   1.083       .  S
C1847      C1848   1.408       .  A
C1848     Br1849   1.916       .  S
Br1852     C2469   1.921   1_545  S
C1853      C1854   1.414       .  A
C1853      C1858   1.403       .  A
C1853      H1860   1.082       .  S
C1854      C1855   1.407       .  A
C1855      C1856   1.404       .  A
C1855     Br1862   1.919       .  S
C1856      C1857   1.414       .  A
C1856      H1861   1.082       .  S
C1857      C1858   1.405       .  A
C1858     Br1859   1.918       .  S
C1863      C1864   1.405       .  A
C1863      C2492   1.401       .  A
C1863      H1870   1.084       .  S
C1864      C1865   1.407       .  A
C1865      C1866   1.404       .  A
C1865     Br1872   1.920       .  S
C1866      C1867   1.407       .  A
C1866      H1871   1.084       .  S
C1867      C1932   1.472       .  S
C1867      C2492   1.405       .  A
C1868      C2487   1.401       .  A
C1868      C2491   1.405       .  A
C1868     Br1869   1.918   1_565  S
O1873      C1888   1.266       .  A
O1873     Al1881   1.932       .  S
C1874      O1884   1.268       .  A
C1874      O1875   1.256       .  A
C1874      C2478   1.493       .  S
O1875     Al1877   1.902       .  S
O1876      C1878   1.252       .  A
O1876     Al1877   1.856       .  S
Al1877     O1885   1.862       .  S
Al1877     O1887   1.880       .  S
Al1877     O1886   1.778       .  S
C1878      O1891   1.255       .  A
C1878      C2461   1.431       .  S
O1879      C1889   1.263       .  A
O1879     Al1881   1.920       .  S
O1880      C1893   1.287       .  A
O1880     Al1890   1.983       .  S
Al1881     O1894   1.843       .  S
Al1881     O1891   1.849       .  S
Al1881     O1886   1.775       .  S
O1882      C1889   1.261       .  A
O1882     Al1890   1.911       .  S
O1883      C1892   1.280       .  A
O1883     Al1890   2.001       .  S
O1884     Al1890   1.948       .  S
O1885      C1892   1.253       .  A
O1886     Al1890   1.786       .  S
O1887      C1888   1.256       .  A
C1888      C2438   1.479       .  S
C1889      C2488   1.475       .  S
C1892      C2448   1.506       .  S
C1893      O1894   1.255       .  A
C1893      C2471   1.507       .  S
O1895     Al1903   1.909       .  S
C1896      O1906   1.269       .  A
C1896      O1897   1.258       .  A
C1896      C2481   1.492       .  S
O1897     Al1899   1.906       .  S
O1898      C1900   1.251       .  A
O1898     Al1899   1.847       .  S
Al1899     O1907   1.879       .  S
Al1899     O1909   1.894       .  S
C1900      O1913   1.252       .  A
C1900      C2418   1.426       .  S
O1901      C1911   1.257       .  A
O1901     Al1903   1.903       .  S
O1902      C1915   1.286       .  A
O1902     Al1912   1.979       .  S
Al1903     O1916   1.840       .  S
Al1903     O1908   1.775       .  S
O1904      C1911   1.261       .  A
O1904     Al1912   1.921       .  S
O1905      C1914   1.277       .  A
O1907      C1914   1.259       .  A
O1908     Al1912   1.785       .  S
O1909      C1910   1.257       .  A
C1910      C2388   1.466       .  S
C1911      C2428   1.481       .  S
C1914      C2411   1.512       .  S
C1915      O1916   1.257       .  A
C1915      C2398   1.501       .  S
O1917      C1932   1.264       .  A
O1917     Al1925   1.918       .  S
C1918      O1919   1.263       .  A
C1918      C2368   1.507       .  S
O1919     Al1921   1.923       .  S
O1920      C1922   1.246       .  A
O1920     Al1921   1.843       .  S
Al1921     O1929   1.872       .  S
Al1921     O1931   1.895       .  S
C1922      C2421   1.444       .  S
O1923      C1933   1.264       .  A
O1923     Al1925   1.932       .  S
O1924      C1937   1.286       .  A
O1924     Al1934   1.974       .  S
Al1925     O1938   1.860       .  S
Al1925     O1935   1.852       .  S
Al1925     O1930   1.784       .  S
O1926      C1933   1.254       .  A
O1926     Al1934   1.883       .  S
O1927     Al1934   1.963       .  S
O1928     Al1934   1.935       .  S
O1929      C1936   1.254       .  A
O1930     Al1934   1.780       .  S
C1933      C2381   1.490       .  S
C1936      C2401   1.501       .  S
C1937      O1938   1.258       .  A
C1937      C2408   1.496       .  S
O1939      C1954   1.262       .  A
O1939     Al1947   1.912       .  S
C1940      O1950   1.266       .  A
C1940      O1941   1.257       .  A
C1940      C2371   1.492       .  S
O1941     Al1943   1.906       .  S
O1942      C1944   1.251       .  A
O1942     Al1943   1.861       .  S
Al1943     O1951   1.865       .  S
Al1943     O1953   1.903       .  S
Al1943     O1952   1.782       .  S
C1944      O1957   1.245       .  A
C1944      C2358   1.408       .  S
O1945      C1955   1.263       .  A
O1945     Al1947   1.916       .  S
O1946      C1959   1.288       .  A
O1946     Al1956   1.995       .  S
Al1947     O1960   1.803       .  S
Al1947     O1957   1.824       .  S
Al1947     O1952   1.778       .  S
O1948      C1955   1.260       .  A
O1948     Al1956   1.906       .  S
O1949      C1958   1.281       .  A
O1949     Al1956   1.992       .  S
O1950     Al1956   1.944       .  S
O1951      C1958   1.252       .  A
O1952     Al1956   1.791       .  S
O1953      C1954   1.260       .  A
C1954      C2328   1.471       .  S
C1955      C2391   1.469       .  S
C1958      C2338   1.509       .  S
C1959      O1960   1.238       .  A
C1959      C2348   1.502       .  S
O1961     Al1969   1.978       .  S
C1962      O1972   1.278       .  A
C1962      O1963   1.262       .  A
C1962      C2308   1.476       .  S
O1963     Al1965   1.876       .  S
O1964      C1966   1.248       .  A
O1964     Al1965   1.853       .  S
Al1965     O1973   1.841       .  S
Al1965     O1975   1.877       .  S
C1966      O1979   1.255   1_655  A
C1966      C2361   1.417       .  S
O1967      C1977   1.267       .  A
O1967     Al1969   1.954       .  S
O1968      C1981   1.283       .  A
O1968     Al1978   1.995       .  S
Al1969     O1982   1.859       .  S
Al1969     O1974   1.783       .  S
O1970      C1977   1.259       .  A
O1970     Al1978   1.866       .  S
O1971      C1980   1.279       .  A
O1973      C1980   1.240       .  A
O1974     Al1978   1.766       .  S
O1975      C1976   1.263       .  A
C1976      C2378   1.490       .  S
C1977      C2318   1.483       .  S
C1980      C2351   1.496       .  S
C1981      O1982   1.251       .  A
C1981      C2341   1.507       .  S
O1983     Al1991   1.934       .  S
C1984      O1994   1.263       .  A
C1984      O1985   1.258       .  A
C1984      C2311   1.477       .  S
O1985     Al1987   1.916       .  S
O1986      C1988   1.256       .  A
O1986     Al1987   1.876       .  S
Al1987     O1995   1.865       .  S
Al1987     O1997   1.878       .  S
Al1987     O1996   1.784       .  S
C1988      O2001   1.255       .  A
C1988      C2298   1.446       .  S
O1989      C1999   1.263       .  A
O1989     Al1991   1.920       .  S
O1990      C2003   1.284       .  A
O1990     Al2000   1.964       .  S
Al1991     O2004   1.864       .  S
O1992      C1999   1.261       .  A
O1992     Al2000   1.908       .  S
O1993      C2002   1.277       .  A
O1995      C2002   1.253       .  A
O1997      C1998   1.257       .  A
C1998      C2268   1.473       .  S
C1999      C2331   1.478       .  S
C2002      C2291   1.506       .  S
C2003      O2004   1.257       .  A
C2003      C2281   1.498       .  S
O2005      C2020   1.264       .  A
O2005     Al2013   1.931       .  S
C2006      O2016   1.265       .  A
C2006      O2007   1.255       .  A
C2006      C2251   1.492       .  S
O2007     Al2009   1.901       .  S
O2008      C2010   1.256       .  A
O2008     Al2009   1.871       .  S
Al2009     O2017   1.876       .  S
Al2009     O2019   1.898       .  S
Al2009     O2018   1.782       .  S
C2010      O2023   1.259       .  A
C2010      C2301   1.447       .  S
O2011      C2021   1.261       .  A
O2011     Al2013   1.912       .  S
O2012      C2025   1.282       .  A
O2012     Al2022   1.967       .  S
Al2013     O2026   1.853       .  S
Al2013     O2023   1.874       .  S
Al2013     O2018   1.773       .  S
O2014      C2021   1.266       .  A
O2014     Al2022   1.934       .  S
O2015      C2024   1.283       .  A
O2015     Al2022   2.004       .  S
O2016     Al2022   1.939       .  S
O2017      C2024   1.259       .  A
O2018     Al2022   1.779       .  S
O2019      C2020   1.259       .  A
C2020      C2321   1.478       .  S
C2021      C2258   1.493       .  S
C2024      C2278   1.510       .  S
C2025      O2026   1.256       .  A
C2025      C2288   1.502       .  S
O2027      C2042   1.269       .  A
O2027     Al2035   1.958       .  S
C2028      O2038   1.276       .  A
C2028      O2029   1.259       .  A
C2028      C2248   1.496       .  S
O2029     Al2031   1.865       .  S
O2030      C2032   1.257       .  A
O2030     Al2031   1.892       .  S
Al2031     O2039   1.883       .  S
Al2031     O2041   1.876       .  S
C2032      C2241   1.428       .  S
O2033      C2043   1.265       .  A
O2033     Al2035   1.942       .  S
O2034      C2047   1.282       .  A
O2034     Al2044   2.008       .  S
Al2035     O2048   1.871       .  S
Al2035     O2045   1.869       .  S
Al2035     O2040   1.781       .  S
O2036      C2043   1.262       .  A
O2036     Al2044   1.897       .  S
O2037     Al2044   1.968       .  S
O2039      C2046   1.254       .  A
O2040     Al2044   1.773       .  S
C2043      C2271   1.485       .  S
C2046      C2228   1.492       .  S
C2047      O2048   1.258       .  A
C2047      C2221   1.513       .  S
O2049     Al2057   1.936       .  S
C2050      O2060   1.261       .  A
C2050      O2051   1.249       .  A
C2050      C2191   1.486       .  S
O2051     Al2053   1.883       .  S
O2052      C2054   1.254       .  A
O2052     Al2053   1.871       .  S
Al2053     O2061   1.882       .  S
Al2053     O2063   1.874       .  S
Al2053     O2062   1.791       .  S
C2054      O2067   1.250       .  A
C2054      C2238   1.423       .  S
O2055      C2065   1.264       .  A
O2055     Al2057   1.921       .  S
O2056      C2069   1.279       .  A
O2056     Al2066   1.969       .  S
Al2057     O2070   1.849       .  S
O2058      C2065   1.263       .  A
O2058     Al2066   1.907       .  S
O2059      C2068   1.279       .  A
O2061      C2068   1.261       .  A
O2063      C2064   1.255       .  A
C2064      C2261   1.475       .  S
C2065      C2201   1.481       .  S
C2068      C2218   1.511       .  S
C2069      O2070   1.249       .  A
C2069      C2231   1.490       .  S
O2071      C2086   1.261       .  A
O2071     Al2079   1.910       .  S
C2072      O2082   1.267       .  A
C2072      O2073   1.260       .  A
C2072      C2188   1.501       .  S
O2073     Al2075   1.912   1_554  S
O2074      C2076   1.250       .  A
O2074     Al2075   1.856   1_554  S
Al2075     O2083   1.871       .  S
Al2075     O2085   1.895       .  S
Al2075     O2084   1.783   1_556  S
C2076      O2089   1.255   1_554  A
C2076      C2181   1.437       .  S
O2077      C2087   1.260       .  A
O2077     Al2079   1.907   1_554  S
O2078      C2091   1.286   1_554  A
O2078     Al2088   1.981       .  S
Al2079     O2092   1.851       .  S
Al2079     O2089   1.857       .  S
Al2079     O2084   1.776   1_556  S
O2080      C2087   1.262       .  A
O2080     Al2088   1.920       .  S
O2081      C2090   1.279       .  A
O2081     Al2088   1.999       .  S
O2082     Al2088   1.936       .  S
O2083      C2090   1.255   1_556  A
O2084     Al2088   1.784       .  S
O2085      C2086   1.258       .  A
C2086      C2151   1.468       .  S
C2087      C2208   1.487       .  S
C2090      C2171   1.512       .  S
C2091      O2092   1.257       .  A
C2091      C2161   1.505       .  S
O2093      C2108   1.265   1_655  A
O2093     Al2101   1.936       .  S
C2094      O2104   1.267       .  A
C2094      O2095   1.255       .  A
C2094      C2138   1.494       .  S
O2095     Al2097   1.904       .  S
O2096      C2098   1.257       .  A
O2096     Al2097   1.862       .  S
Al2097     O2105   1.877   1_556  S
Al2097     O2107   1.874   1_556  S
C2098      C2178   1.444       .  S
O2099      C2109   1.263       .  A
O2099     Al2101   1.928   1_556  S
O2100      C2113   1.285       .  A
O2100     Al2110   1.974       .  S
Al2101     O2114   1.849       .  S
Al2101     O2111   1.862       .  S
Al2101     O2106   1.789   1_554  S
O2102      C2109   1.261       .  A
O2102     Al2110   1.898       .  S
O2103     Al2110   1.989   1_455  S
O2105      C2112   1.258   1_554  A
O2106     Al2110   1.779       .  S
C2109      C2441   1.492       .  S
C2112      C2158   1.509       .  S
C2113      O2114   1.255   1_556  A
C2113      C2168   1.496   1_556  S
O2115      C2130   1.263       .  A
O2115     Al2123   1.913       .  S
C2116      O2117   1.257       .  A
C2116      C2141   1.482       .  S
O2117     Al2119   1.911       .  S
O2118      C2120   1.252       .  A
O2118     Al2119   1.850       .  S
Al2119     O2127   1.871       .  S
Al2119     O2129   1.882       .  S
C2120      C2458   1.434       .  S
O2121      C2131   1.261       .  A
O2121     Al2123   1.914       .  S
O2122      C2135   1.286       .  A
O2122     Al2132   1.978       .  S
Al2123     O2136   1.847       .  S
Al2123     O2133   1.852       .  S
Al2123     O2128   1.775       .  S
O2124      C2131   1.263       .  A
O2124     Al2132   1.924       .  S
O2125     Al2132   1.997       .  S
O2126     Al2132   1.947       .  S
O2127      C2134   1.254       .  A
O2128     Al2132   1.778       .  S
C2131      C2148   1.482       .  S
C2134      C2468   1.510       .  S
C2135      O2136   1.256       .  A
C2135      C2451   1.499       .  S
C2137      C2138   1.413       .  A
C2137      C2142   1.406       .  A
C2137      H2144   1.083       .  S
C2138      C2139   1.413       .  A
C2139      C2140   1.406       .  A
C2140      C2141   1.406       .  A
C2140      H2145   1.083       .  S
C2141      C2142   1.404       .  A
C2142     Br2143   1.917       .  S
C2147      C2148   1.405       .  A
C2147      C2152   1.405       .  A
C2147      H2154   1.083       .  S
C2148      C2149   1.411       .  A
C2149      C2150   1.394       .  A
C2149     Br2156   1.905       .  S
C2150      C2151   1.395       .  A
C2150      H2155   1.084       .  S
C2151      C2152   1.411       .  A
C2152     Br2153   1.918       .  S
C2157      C2158   1.421   1_554  A
C2157      C2162   1.414       .  A
C2157      H2164   1.083       .  S
C2158      C2159   1.410       .  A
C2159      C2160   1.403       .  A
C2159     Br2166   1.921       .  S
C2160      C2161   1.417       .  A
C2160      H2165   1.084       .  S
C2161      C2162   1.407   1_556  A
C2162     Br2163   1.918       .  S
C2167      C2168   1.413       .  A
C2167      C2172   1.408       .  A
C2167      H2174   1.084       .  S
C2168      C2169   1.408   1_554  A
C2169      C2170   1.411       .  A
C2169     Br2176   1.917       .  S
C2170      C2171   1.418   1_556  A
C2170      H2175   1.083       .  S
C2171      C2172   1.416       .  A
C2172     Br2173   1.921       .  S
C2177      C2178   1.402       .  A
C2177      H2184   1.084       .  S
C2178      C2179   1.410   1_556  A
C2180      C2181   1.397       .  A
C2180      H2185   1.085       .  S
C2181      C2182   1.405   1_554  A
C2182     Br2183   1.923       .  S
C2187      C2188   1.417       .  A
C2187      C2192   1.405       .  A
C2187      H2194   1.083       .  S
C2188      C2189   1.415       .  A
C2189      C2190   1.403       .  A
C2189     Br2196   1.922       .  S
C2190      C2191   1.407       .  A
C2190      H2195   1.084       .  S
C2191      C2192   1.403       .  A
C2192     Br2193   1.917       .  S
C2197      C2198   1.402       .  A
C2197      C2202   1.386       .  A
C2197      H2204   1.085       .  S
C2198      C2199   1.407       .  A
C2199      C2200   1.415       .  A
C2200      C2201   1.412       .  A
C2200      H2205   1.083       .  S
C2201      C2202   1.407       .  A
C2202     Br2203   1.915   1_565  S
C2207      C2208   1.407       .  A
C2207      C2212   1.407       .  A
C2207      H2214   1.084       .  S
C2208      C2209   1.413       .  A
C2209      C2210   1.391       .  A
C2209     Br2216   1.911       .  S
C2210      C2211   1.401       .  A
C2210      H2215   1.084       .  S
C2211      C2212   1.417       .  A
C2212     Br2213   1.919       .  S
C2217      C2218   1.419       .  A
C2217      C2222   1.413       .  A
C2217      H2224   1.083       .  S
C2218      C2219   1.410       .  A
C2219      C2220   1.406       .  A
C2220      C2221   1.418       .  A
C2220      H2225   1.082       .  S
C2221      C2222   1.409       .  A
C2222     Br2223   1.917       .  S
C2227      C2228   1.411       .  A
C2227      C2232   1.412       .  A
C2227      H2234   1.084       .  S
C2228      C2229   1.406       .  A
C2229      C2230   1.410       .  A
C2230      C2231   1.413       .  A
C2230      H2235   1.084       .  S
C2231      C2232   1.408       .  A
C2232     Br2233   1.915       .  S
C2237      C2238   1.392       .  A
C2237      C2242   1.380       .  A
C2237      H2244   1.086       .  S
C2238      C2239   1.399       .  A
C2239      C2240   1.383       .  A
C2239     Br2246   1.912       .  S
C2240      C2241   1.395       .  A
C2240      H2245   1.086       .  S
C2241      C2242   1.402       .  A
C2242     Br2243   1.908       .  S
C2247      C2248   1.415       .  A
C2247      C2252   1.401       .  A
C2247      H2254   1.083       .  S
C2248      C2249   1.411       .  A
C2249      C2250   1.400       .  A
C2249     Br2256   1.922       .  S
C2250      C2251   1.413       .  A
C2250      H2255   1.083       .  S
C2251      C2252   1.408       .  A
C2252     Br2253   1.920       .  S
C2257      C2258   1.408       .  A
C2257      C2262   1.408       .  A
C2257      H2264   1.083       .  S
C2258      C2259   1.414       .  A
C2259      C2260   1.398       .  A
C2259     Br2266   1.911       .  S
C2260      C2261   1.400       .  A
C2260      H2265   1.085       .  S
C2261      C2262   1.410       .  A
C2262     Br2263   1.917       .  S
C2267      C2268   1.401       .  A
C2267      C2272   1.389       .  A
C2267      H2274   1.080       .  S
C2268      C2269   1.405       .  A
C2269      C2270   1.411       .  A
C2270      C2271   1.414       .  A
C2270      H2275   1.083       .  S
C2271      C2272   1.411       .  A
C2272     Br2273   1.919       .  S
C2277      C2278   1.416       .  A
C2277      C2282   1.411       .  A
C2277      H2284   1.083       .  S
C2278      C2279   1.416       .  A
C2279      C2280   1.407       .  A
C2279     Br2286   1.921       .  S
C2280      C2281   1.412       .  A
C2280      H2285   1.084       .  S
C2281      C2282   1.411       .  A
C2282     Br2283   1.918       .  S
C2287      C2288   1.418       .  A
C2287      C2292   1.405       .  A
C2287      H2294   1.084       .  S
C2288      C2289   1.407       .  A
C2289      C2290   1.409       .  A
C2289     Br2296   1.920       .  S
C2290      C2291   1.420       .  A
C2290      H2295   1.083       .  S
C2291      C2292   1.408       .  A
C2292     Br2293   1.919       .  S
C2297      C2298   1.400       .  A
C2297      H2304   1.084       .  S
C2298      C2299   1.408       .  A
C2299     Br2306   1.921       .  S
C2300      C2301   1.401       .  A
C2300      H2305   1.084       .  S
C2301      C2302   1.406       .  A
C2302     Br2303   1.923       .  S
C2307      C2308   1.404       .  A
C2307      C2312   1.406       .  A
C2307      H2314   1.084       .  S
C2308      C2309   1.410       .  A
C2309      C2310   1.396       .  A
C2309     Br2316   1.918       .  S
C2310      C2311   1.400       .  A
C2310      H2315   1.083       .  S
C2311      C2312   1.412       .  A
C2312     Br2313   1.919       .  S
C2317      C2318   1.398       .  A
C2317      C2322   1.383       .  A
C2317      H2324   1.082       .  S
C2318      C2319   1.415       .  A
C2319      C2320   1.414       .  A
C2319     Br2326   1.915       .  S
C2320      C2321   1.407       .  A
C2320      H2325   1.083       .  S
C2321      C2322   1.407       .  A
C2322     Br2323   1.911       .  S
C2327      C2328   1.405       .  A
C2327      C2332   1.405       .  A
C2327      H2334   1.083       .  S
C2328      C2329   1.404       .  A
C2329      C2330   1.397       .  A
C2329     Br2336   1.916       .  S
C2330      C2331   1.405       .  A
C2330      H2335   1.082       .  S
C2331      C2332   1.409       .  A
C2332     Br2333   1.918       .  S
C2337      C2338   1.401       .  A
C2337      C2342   1.406       .  A
C2337      H2344   1.083       .  S
C2338      C2339   1.430       .  A
C2339      C2340   1.405       .  A
C2339     Br2346   1.921       .  S
C2340      C2341   1.400       .  A
C2340      H2345   1.083       .  S
C2341      C2342   1.430       .  A
C2342     Br2343   1.925       .  S
C2347      C2348   1.393       .  A
C2347      C2352   1.408       .  A
C2347      H2354   1.083       .  S
C2348      C2349   1.443       .  A
C2349      C2350   1.394       .  A
C2349     Br2356   1.932       .  S
C2350      C2351   1.384       .  A
C2350      H2355   1.084       .  S
C2351      C2352   1.437       .  A
C2352     Br2353   1.926       .  S
C2357      C2358   1.402       .  A
C2357      H2364   1.084       .  S
C2358      C2359   1.391   1_565  A
C2359     Br2366   1.923   1_545  S
C2360      C2361   1.402       .  A
C2360      H2365   1.079       .  S
C2361      C2362   1.395       .  A
C2367      C2368   1.417       .  A
C2367      C2372   1.409       .  A
C2367      H2374   1.082       .  S
C2368      C2369   1.416       .  A
C2369      C2370   1.403       .  A
C2370      C2371   1.407       .  A
C2370      H2375   1.082       .  S
C2371      C2372   1.405       .  A
C2372     Br2373   1.917       .  S
C2377      C2378   1.403       .  A
C2377      C2382   1.383       .  A
C2377      H2384   1.083       .  S
C2378      C2379   1.414       .  A
C2379      C2380   1.411       .  A
C2380      C2381   1.411       .  A
C2380      H2385   1.083       .  S
C2381      C2382   1.418       .  A
C2382     Br2383   1.928       .  S
C2387      C2388   1.406       .  A
C2387      C2392   1.399       .  A
C2387      H2394   1.084       .  S
C2388      C2389   1.402       .  A
C2389      C2390   1.400       .  A
C2390      C2391   1.406       .  A
C2390      H2395   1.082       .  S
C2391      C2392   1.404       .  A
C2392     Br2393   1.921       .  S
C2397      C2398   1.417       .  A
C2397      C2402   1.398       .  A
C2397      H2404   1.084       .  S
C2398      C2399   1.407       .  A
C2399      C2400   1.412       .  A
C2399     Br2406   1.918       .  S
C2400      C2401   1.420       .  A
C2400      H2405   1.083       .  S
C2401      C2402   1.408       .  A
C2407      C2408   1.412       .  A
C2407      C2412   1.407       .  A
C2407      H2414   1.084       .  S
C2408      C2409   1.407       .  A
C2409      C2410   1.410       .  A
C2409     Br2416   1.912       .  S
C2410      C2411   1.417       .  A
C2410      H2415   1.083       .  S
C2411      C2412   1.417       .  A
C2412     Br2413   1.921       .  S
C2417      C2418   1.394       .  A
C2417      C2422   1.378       .  A
C2417      H2424   1.084       .  S
C2418      C2419   1.400       .  A
C2419      C2420   1.373       .  A
C2420      C2421   1.403       .  A
C2421      C2422   1.413       .  A
C2422     Br2423   1.923       .  S
C2427      C2428   1.405       .  A
C2427      C2432   1.403       .  A
C2427      H2434   1.081       .  S
C2428      C2429   1.411       .  A
C2429      C2430   1.392       .  A
C2429     Br2436   1.907       .  S
C2430      C2431   1.396       .  A
C2430      H2435   1.084       .  S
C2431      C2432   1.409       .  A
C2432     Br2433   1.918   1_565  S
C2437      C2438   1.406       .  A
C2437      C2442   1.410       .  A
C2437      H2444   1.084       .  S
C2438      C2439   1.409       .  A
C2439      C2440   1.391       .  A
C2439     Br2446   1.923       .  S
C2440      C2441   1.404       .  A
C2440      H2445   1.081       .  S
C2441      C2442   1.415       .  A
C2442     Br2443   1.914       .  S
C2447      C2448   1.421       .  A
C2447      C2452   1.408       .  A
C2447      H2454   1.082       .  S
C2448      C2449   1.407       .  A
C2449      C2450   1.405       .  A
C2449     Br2456   1.919       .  S
C2450      C2451   1.419       .  A
C2450      H2455   1.084       .  S
C2451      C2452   1.404       .  A
C2452     Br2453   1.918       .  S
C2457      C2458   1.401       .  A
C2457      H2464   1.084       .  S
C2458      C2459   1.406       .  A
C2460      C2461   1.399       .  A
C2460      H2465   1.085       .  S
C2461      C2462   1.404       .  A
C2462     Br2463   1.922       .  S
C2467      C2468   1.421       .  A
C2467      C2472   1.413       .  A
C2467      H2474   1.082       .  S
C2468      C2469   1.409       .  A
C2469      C2470   1.404       .  A
C2470      C2471   1.419       .  A
C2470      H2475   1.083       .  S
C2471      C2472   1.408       .  A
C2472     Br2473   1.916       .  S
C2477      C2478   1.414       .  A
C2477      C2482   1.403       .  A
C2477      H2484   1.082       .  S
C2478      C2479   1.407       .  A
C2479      C2480   1.404       .  A
C2479     Br2486   1.919       .  S
C2480      C2481   1.414       .  A
C2480      H2485   1.082       .  S
C2481      C2482   1.405       .  A
C2482     Br2483   1.918       .  S
C2487      C2488   1.405       .  A
C2487      H2494   1.084       .  S
C2488      C2489   1.407       .  A
C2489      C2490   1.404       .  A
C2489     Br2496   1.920       .  S
C2490      C2491   1.407       .  A
C2490      H2495   1.084       .  S
C2492     Br2493   1.918       .  S
