geometry optimzed in LAMMPS
_audit_creation_date              2020-12-01 
_audit_creation_method            'lammps2cif' 
_symmetry_space_group_name_H-M    'P1' 
_symmetry_Int_Tables_number       1 
_symmetry_cell_setting            triclinic 
loop_ 
_symmetry_equiv_pos_as_xyz 
  x,y,z 
_cell_length_a                    24.02350424 
_cell_length_b                    24.16495093855676 
_cell_length_c                    49.63359397801084 
_cell_angle_alpha                 90.37170350970038 
_cell_angle_beta                  90.20022770755581 
_cell_angle_gamma                 89.82352172288974 
loop_ 
_atom_site_label 
_atom_site_type_symbol 
_atom_site_fract_x 
_atom_site_fract_y 
_atom_site_fract_z 
_atom_site_charge 
O1          O  0.27843313  0.90894963  0.52328636    -0.81100
O2          O  0.19417277  0.93828011  0.63746338    -0.65800
O3          O  0.20889280  0.88126215  0.56593656    -1.12400
C4          C  0.08166871  0.00763237  0.53742599     1.05800
O5          O  0.11361758  0.98391254  0.63242128    -0.79000
O6          O  0.07665070  0.90881537  0.59343595    -0.66600
Ni7        Ni  0.27723961  0.85604966  0.55211840     1.34900
C8          C  0.07577259  0.88095859  0.57144503     0.84500
O9          O  0.23865845  0.84275075  0.61650019    -0.79600
O10         O  0.27854706  0.80196470  0.58008801    -0.89800
C11         C  0.15501002  0.96886757  0.64659724     0.84100
O12         O  0.32656861  0.90246057  0.57195890    -0.68000
O13         O  0.06116372  0.99519559  0.56004723    -0.87300
C14         C  0.31936579  0.93943251  0.58984125     0.84900
C15         C  0.26310177  0.80174760  0.60473601     1.06500
H16         H  0.18840754  0.00353336  0.58587980     0.38300
O17         O  0.16632361  0.97049718  0.58430136    -1.10000
O18         O  0.10455592  0.89551738  0.55082353    -0.66600
Ni19       Ni  0.17254588  0.94079454  0.54874938     1.26300
O20         O  0.27243354  0.94785441  0.60093382    -0.66900
O21         O  0.13282198  0.00018914  0.53235580    -0.79200
C22         C  0.23963541  0.91748991  0.50629315     0.84300
O23         O  0.18877318  0.91327139  0.51331221    -0.66300
Ni24       Ni  0.09215057  0.98594717  0.59537952     1.27400
Ni25       Ni  0.20296978  0.90832360  0.60156487     1.26100
H26         H  0.18535735  0.84896064  0.56491532     0.38800
O27         O  0.72739447  0.66395778  0.52342388    -0.81100
O28         O  0.81003964  0.63584779  0.63736096    -0.65800
O29         O  0.79730169  0.69135297  0.56595055    -1.12400
C30         C  0.92182183  0.56163328  0.53753119     1.05800
O31         O  0.89086490  0.59037911  0.63282174    -0.79000
O32         O  0.92949446  0.66226165  0.59347499    -0.66600
Ni33       Ni  0.72983682  0.71796631  0.55188586     1.34900
C34         C  0.92934326  0.68971499  0.57156653     0.84500
O35         O  0.76646095  0.73066322  0.61624393    -0.79600
O36         O  0.73008859  0.77305076  0.57948697    -0.89800
C37         C  0.84945253  0.60621492  0.64681643     0.84100
O38         O  0.67901486  0.67460158  0.57216420    -0.68000
O39         O  0.94260783  0.57355158  0.56036520    -0.87300
C40         C  0.68474132  0.63774726  0.58999771     0.84900
C41         C  0.74301893  0.77195392  0.60445699     1.06500
H42         H  0.81563046  0.56897197  0.58572505     0.38300
O43         O  0.83823365  0.60181582  0.58428163    -1.10000
O44         O  0.90127194  0.67455021  0.55069943    -0.66600
Ni45       Ni  0.83240906  0.63085002  0.54867178     1.26300
O46         O  0.73187045  0.62630295  0.60043399    -0.66900
O47         O  0.87090739  0.57044809  0.53223219    -0.79200
C48         C  0.76565054  0.65649306  0.50613785     0.84300
O49         O  0.81667981  0.65848566  0.51329817    -0.66300
Ni50       Ni  0.91213514  0.58556079  0.59572593     1.27400
Ni51       Ni  0.80206719  0.66478051  0.60147142     1.26100
H52         H  0.82159700  0.72305501  0.56520277     0.38800
O53         O  0.30549676  0.40008181  0.60942676    -0.81100
O54         O  0.37391903  0.47089985  0.72979671    -0.65800
O55         O  0.31719597  0.45141986  0.65827811    -1.12400
C56         C  0.48784301  0.54741841  0.63979078     1.05800
O57         O  0.37742435  0.56001705  0.72036524    -0.79000
O58         O  0.38639231  0.60996439  0.67217041    -0.66600
Ni59       Ni  0.29999520  0.37840879  0.64619088     1.34900
C60         C  0.34984664  0.60372068  0.65393329     0.84500
O61         O  0.28644030  0.41641433  0.70989578    -0.79600
O62         O  0.28893406  0.34642389  0.68116267    -0.89800
C63         C  0.37102178  0.52145723  0.73742477     0.84100
O64         O  0.37664435  0.36049926  0.64814043    -0.68000
O65         O  0.48754853  0.56142267  0.66467496    -0.87300
C66         C  0.40453103  0.35864691  0.66999252     0.84900
C67         C  0.27875778  0.36568465  0.70445722     1.06500
H68         H  0.43910422  0.46863132  0.67835123     0.38300
O69         O  0.40672829  0.49233414  0.67745974    -1.10000
O70         O  0.34090299  0.55717743  0.64257246    -0.66600
Ni71       Ni  0.38056261  0.48769405  0.64174486     1.26300
O72         O  0.39161786  0.38791234  0.69089915    -0.66900
O73         O  0.44701993  0.52322806  0.62768160    -0.79200
C74         C  0.32370235  0.44020187  0.59568312     0.84300
O75         O  0.35239259  0.47971812  0.60558767    -0.66300
Ni76       Ni  0.43183118  0.55969320  0.69207166     1.27400
Ni77       Ni  0.34648598  0.45602705  0.69403046     1.26100
H78         H  0.28422548  0.47426820  0.65693864     0.38800
O79         O  0.69589599  0.17818151  0.60613570    -0.81100
O80         O  0.63572850  0.10665317  0.72662398    -0.65800
O81         O  0.68856179  0.12749741  0.65489971    -1.12400
C82         C  0.51877015  0.03008368  0.63644713     1.05800
O83         O  0.63057070  0.01766062  0.71635300    -0.79000
O84         O  0.61739096  0.96786787  0.66789896    -0.66600
Ni85       Ni  0.70166120  0.20100084  0.64294366     1.34900
C86         C  0.65484092  0.97360314  0.65021363     0.84500
O87         O  0.72214616  0.16222122  0.70592586    -0.79600
O88         O  0.71453740  0.23294220  0.67798102    -0.89800
C89         C  0.63702214  0.05593840  0.73379604     0.84100
O90         O  0.62408894  0.21632314  0.64607127    -0.68000
O91         O  0.51775837  0.01863527  0.66156410    -0.87300
C92         C  0.59865860  0.21705428  0.66859497     0.84900
C93         C  0.72914373  0.21304050  0.70051245     1.06500
H94         H  0.56788615  0.10987122  0.67519998     0.38300
O95         O  0.60011946  0.08593955  0.67431375    -1.10000
O96         O  0.66625822  0.02044924  0.64012299    -0.66600
Ni97       Ni  0.62584973  0.08940941  0.63864730     1.26300
O98         O  0.61568477  0.18980301  0.68921956    -0.66900
O99         O  0.56033122  0.05238533  0.62446817    -0.79200
C100        C  0.68255105  0.13499368  0.59291845     0.84300
O101        O  0.65435327  0.09552945  0.60278744    -0.66300
Ni102      Ni  0.57454608  0.01906582  0.68863607     1.27400
Ni103      Ni  0.66124393  0.12214572  0.69075742     1.26100
H104        H  0.72220937  0.10594604  0.65309931     0.38800
O105        O  0.60858783  0.98707060  0.85665923    -0.81100
O106        O  0.68187485  0.92141922  0.97680857    -0.65800
O107        O  0.66048831  0.97649388  0.90534955    -1.12400
C108        C  0.76134179  0.80958905  0.88656874     1.05800
O109        O  0.77161106  0.92098256  0.96752975    -0.79000
O110        O  0.82223401  0.91464264  0.91933837    -0.66600
Ni111      Ni  0.58605035  0.98964441  0.89354416     1.34900
C112        C  0.81472471  0.94956787  0.90073271     0.84500
O113        O  0.62509202  0.00710599  0.95667571    -0.79600
O114        O  0.55394343  0.99917872  0.92862989    -0.89800
C115        C  0.73247254  0.92440272  0.98466730     0.84100
O116        O  0.57161294  0.91212105  0.89549146    -0.68000
O117        O  0.77783763  0.81228938  0.91107474    -0.87300
C118        C  0.57088339  0.88541804  0.91766786     0.84900
C119        C  0.57362009  0.01190955  0.95153852     1.06500
H120        H  0.68244655  0.85615917  0.92530463     0.38300
O121        O  0.70493135  0.88912569  0.92432613    -1.10000
O122        O  0.76777664  0.95587136  0.88917497    -0.66600
Ni123      Ni  0.69895647  0.91467833  0.88858820     1.26300
O124        O  0.59967294  0.90108655  0.93829616    -0.66900
O125        O  0.73585031  0.84908605  0.87429846    -0.79200
C126        C  0.65088408  0.97265146  0.84298278     0.84300
O127        O  0.69013868  0.94288961  0.85256197    -0.66300
Ni128      Ni  0.77386381  0.86727752  0.93881094     1.27400
Ni129      Ni  0.66654390  0.94805426  0.94101979     1.26100
H130        H  0.68195763  0.01020675  0.90388562     0.38800
O131        O  0.38733487  0.59031081  0.86127236    -0.81100
O132        O  0.30747441  0.66681485  0.97947236    -0.65800
O133        O  0.33348952  0.60470225  0.90952106    -1.12400
C134        C  0.23762804  0.77131273  0.88520709     1.05800
O135        O  0.21828063  0.67315314  0.96878783    -0.79000
O136        O  0.17284997  0.67769073  0.91938044    -0.66600
Ni137      Ni  0.40796443  0.58982590  0.89865466     1.34900
C138        C  0.17957549  0.63712408  0.90341673     0.84500
O139        O  0.36574824  0.57925730  0.96217833    -0.79600
O140        O  0.43809102  0.58139226  0.93443363    -0.89800
C141        C  0.25617737  0.66392368  0.98617177     0.85700
O142        O  0.42246282  0.66739762  0.89973208    -0.68000
O143        O  0.22412316  0.77527244  0.91004067    -0.87300
C144        C  0.42160924  0.69662892  0.92124831     0.84900
C145        C  0.41660986  0.56987524  0.95703752     1.06500
H146        H  0.31420591  0.72716623  0.92609123     0.38300
O147        O  0.29019534  0.69516334  0.92596351    -1.10000
O148        O  0.22668969  0.62475123  0.89338836    -0.66600
Ni149      Ni  0.29578193  0.66452788  0.89101446     1.26300
O150        O  0.39393580  0.68244789  0.94228754    -0.66900
O151        O  0.25919598  0.72778408  0.87440608    -0.79200
C152        C  0.34503100  0.60252358  0.84700703     0.84300
O153        O  0.30426784  0.63110762  0.85594512    -0.66300
Ni154      Ni  0.22258346  0.72369919  0.93899527     1.27400
Ni155      Ni  0.32597292  0.63706860  0.94454896     1.26100
H156        H  0.31203284  0.57102708  0.90847113     0.38800
O157        O  0.12333092  0.01396203  0.77298049    -0.81100
O158        O  0.15895836  0.09092514  0.88699676    -0.65800
O159        O  0.09898309  0.08341855  0.81601741    -1.12400
C160        C  0.22828832  0.20676105  0.78822294     1.05800
O161        O  0.20366167  0.17182076  0.88350319    -0.79000
O162        O  0.12992825  0.21276020  0.84477917    -0.66600
Ni163      Ni  0.06960559  0.01790845  0.80147509     1.34900
C164        C  0.10143571  0.21388098  0.82299183     0.84500
O165        O  0.06097728  0.05149239  0.86622193    -0.79600
O166        O  0.01504602  0.01990084  0.82929677    -0.89800
C167        C  0.18942089  0.12930939  0.89678980     0.84100
O168        O  0.11214602  0.96506236  0.82101686    -0.68000
O169        O  0.21770508  0.22637730  0.81146254    -0.87300
C170        C  0.15221895  0.96952122  0.83749097     0.84900
C171        C  0.01743204  0.03175097  0.85442746     1.06500
H172        H  0.22321052  0.09903947  0.83550826     0.38300
O173        O  0.19017646  0.12183237  0.83438897    -1.10000
O174        O  0.11605153  0.18656330  0.80177460    -0.66600
Ni175      Ni  0.15983090  0.11766230  0.79889180     1.26300
O176        O  0.16532912  0.01558869  0.84838470    -0.66900
O177        O  0.22042696  0.15599273  0.78284593    -0.79200
C178        C  0.13195819  0.05194862  0.75589607     0.84300
O179        O  0.13144632  0.10273406  0.76331059    -0.66300
Ni180      Ni  0.20710901  0.19466402  0.84658072     1.27400
Ni181      Ni  0.12740291  0.08585533  0.85136050     1.26100
H182        H  0.06754034  0.10838037  0.81582297     0.38800
O183        O  0.88127066  0.56623694  0.77420310    -0.81100
O184        O  0.83849661  0.48393721  0.88702457    -0.65800
O185        O  0.90523138  0.49689274  0.81757045    -1.12400
C186        C  0.78319310  0.36856128  0.78546838     1.05800
O187        O  0.80499258  0.39836494  0.88163910    -0.79000
O188        O  0.88039283  0.36349643  0.84291696    -0.66600
Ni189      Ni  0.93167445  0.56453526  0.80439621     1.34900
C190        C  0.90931852  0.36284754  0.82139434     0.84500
O191        O  0.93530671  0.52993652  0.86918307    -0.79600
O192        O  0.98287877  0.56492072  0.83375273    -0.89800
C193        C  0.81279129  0.44162373  0.89585322     0.84100
O194        O  0.88413738  0.61423345  0.82342053    -0.68000
O195        O  0.79401534  0.34864454  0.80847568    -0.87300
C196        C  0.84384891  0.60747902  0.83944190     0.84900
C197        C  0.97852311  0.55204916  0.85859243     1.06500
H198        H  0.78060172  0.47300948  0.83369216     0.38300
O199        O  0.81521862  0.45257388  0.83316345    -1.10000
O200        O  0.89588446  0.39264091  0.80090668    -0.66600
Ni201      Ni  0.84857033  0.45968008  0.79839152     1.26300
O202        O  0.83173304  0.56044473  0.84930004    -0.66900
O203        O  0.79157192  0.41918974  0.78027889    -0.79200
C204        C  0.87573455  0.52804489  0.75661433     0.84300
O205        O  0.87919664  0.47735800  0.76367247    -0.66300
Ni206      Ni  0.80263740  0.37845762  0.84419219     1.27400
Ni207      Ni  0.87325664  0.49207261  0.85221234     1.26100
H208        H  0.93790342  0.47359572  0.81794333     0.38800
O209        O  0.77581227  0.39621660  0.02207441    -0.81100
O210        O  0.69699859  0.43969283  0.13570196    -0.65800
O211        O  0.70743775  0.37424509  0.06589700    -1.12400
C212        C  0.57598179  0.49531097  0.03563040     1.05800
O213        O  0.61276597  0.47867766  0.13138278    -0.79000
O214        O  0.57518590  0.40095800  0.09371593    -0.66600
Ni215      Ni  0.77398677  0.34577912  0.05190544     1.34900
C216        C  0.57532053  0.37021323  0.07267728     0.84500
O217        O  0.74209968  0.34371180  0.11700546    -0.79600
O218        O  0.77447520  0.29484387  0.08112520    -0.89800
C219        C  0.65595785  0.46709470  0.14517446     0.84100
O220        O  0.82536779  0.39127061  0.07082131    -0.68000
O221        O  0.55675963  0.48568645  0.05891647    -0.87300
C222        C  0.82041699  0.43116714  0.08733313     0.84900
C223        C  0.76342929  0.30014441  0.10621920     1.06500
H224        H  0.68483791  0.49835272  0.08258198     0.38300
O225        O  0.66374800  0.46436495  0.08222644    -1.10000
O226        O  0.60231516  0.38363016  0.05125884    -0.66600
Ni227      Ni  0.66900186  0.43061131  0.04734429     1.26300
O228        O  0.77354365  0.44539478  0.09729407    -0.66900
O229        O  0.62652352  0.48642377  0.02968442    -0.79200
C230        C  0.73681877  0.40503163  0.00519563     0.84300
O231        O  0.68596058  0.40014879  0.01236823    -0.66300
Ni232      Ni  0.58971521  0.47853424  0.09422252     1.27400
Ni233      Ni  0.70393535  0.40585079  0.10062790     1.26100
H234        H  0.68393385  0.34193361  0.06653752     0.38800
O235        O  0.19549906  0.66879783  0.11125685    -0.81100
O236        O  0.12336545  0.58999897  0.22931799    -0.65800
O237        O  0.18553048  0.61455122  0.15957615    -1.12400
C238        C  0.02314067  0.51139001  0.13496125     1.05800
O239        O  0.12165247  0.50076810  0.21934166    -0.79000
O240        O  0.12104669  0.45253022  0.17056406    -0.66600
Ni241      Ni  0.19774413  0.68881585  0.14863731     1.34900
C242        C  0.16050091  0.46015482  0.15411303     0.84500
O243        O  0.21024837  0.64826044  0.21235966    -0.79600
O244        O  0.20620753  0.71891789  0.18438994    -0.89800
C245        C  0.12822005  0.53957110  0.23647200     0.84100
O246        O  0.11982703  0.70258225  0.14978521    -0.68000
O247        O  0.01979168  0.49805574  0.15976897    -0.87300
C248        C  0.09085478  0.70193625  0.17124332     0.84900
C249        C  0.21757696  0.69909289  0.20740518     1.06500
H250        H  0.06321595  0.59178723  0.17570092     0.38300
O251        O  0.09633426  0.56905658  0.17578735    -1.10000
O252        O  0.16981519  0.50706536  0.14347609    -0.66600
Ni253      Ni  0.12702281  0.57467017  0.14089012     1.26300
O254        O  0.10530352  0.67364055  0.19204049    -0.66900
O255        O  0.06505884  0.53576379  0.12433354    -0.79200
C256        C  0.18547309  0.62646751  0.09673481     0.84300
O257        O  0.15985531  0.58408951  0.10562953    -0.66300
Ni258      Ni  0.07133765  0.50079828  0.18912671     1.27400
Ni259      Ni  0.15317430  0.60721743  0.19452975     1.26100
H260        H  0.22010051  0.59433807  0.15884465     0.38800
O261        O  0.22740136  0.15967105  0.02440449    -0.81100
O262        O  0.30944234  0.12174543  0.13795051    -0.65800
O263        O  0.29845737  0.18102029  0.06752812    -1.12400
C264        C  0.41885467  0.04898265  0.03809183     1.05800
O265        O  0.38933544  0.07465661  0.13341993    -0.79000
O266        O  0.43042103  0.14692999  0.09477589    -0.66600
Ni267      Ni  0.23160705  0.21084304  0.05410049     1.34900
C268        C  0.43153895  0.17502821  0.07303465     0.84500
O269        O  0.26957362  0.21814240  0.11865333    -0.79600
O270        O  0.23320145  0.26361513  0.08295255    -0.89800
C271        C  0.34808378  0.09121761  0.14727371     0.84100
O272        O  0.17963031  0.16615933  0.07301776    -0.68000
O273        O  0.44017806  0.05955362  0.06092518    -0.87300
C274        C  0.18498783  0.12754920  0.09002266     0.84900
C275        C  0.24720674  0.26079912  0.10777203     1.06500
H276        H  0.31334456  0.05720480  0.08628032     0.38300
O277        O  0.33683651  0.08950544  0.08507008    -1.10000
O278        O  0.40179737  0.16166610  0.05233113    -0.66600
Ni279      Ni  0.33153341  0.11978463  0.04985205     1.26300
O280        O  0.23154310  0.11598769  0.10093667    -0.66900
O281        O  0.36784510  0.05834374  0.03329858    -0.79200
C282        C  0.26522974  0.14869139  0.00731281     0.84300
O283        O  0.31636990  0.14833500  0.01449475    -0.66300
Ni284      Ni  0.41030811  0.07070624  0.09633579     1.27400
Ni285      Ni  0.30262007  0.15253386  0.10272003     1.26100
H286        H  0.32381264  0.21189051  0.06708410     0.38800
O287        O  0.80139028  0.89586515  0.10863852    -0.81100
O288        O  0.87560074  0.97151985  0.22787719    -0.65800
O289        O  0.81412813  0.94852022  0.15759535    -1.12400
C290        C  0.98246011  0.04318229  0.13476245     1.05800
O291        O  0.88158156  0.06020261  0.21754357    -0.79000
O292        O  0.88845013  0.10751138  0.16897986    -0.66600
Ni293      Ni  0.79866202  0.87517784  0.14588555     1.34900
C294        C  0.84791100  0.10128460  0.15286261     0.84500
O295        O  0.78669325  0.91578668  0.20978832    -0.79600
O296        O  0.78854348  0.84530998  0.18118618    -0.89800
C297        C  0.87391557  0.02250108  0.23484604     0.84100
O298        O  0.87619268  0.85799395  0.14793856    -0.68000
O299        O  0.98643818  0.05516725  0.15980811    -0.87300
C300        C  0.90411028  0.85651171  0.16993422     0.84900
C301        C  0.77836788  0.86504837  0.20440056     1.06500
H302        H  0.93708172  0.96509559  0.17472227     0.38300
O303        O  0.90521481  0.98954762  0.17469923    -1.10000
O304        O  0.83523123  0.05447452  0.14282205    -0.66600
Ni305      Ni  0.87485968  0.98555578  0.13970989     1.26300
O306        O  0.89048841  0.88634283  0.19046415    -0.66900
O307        O  0.93896804  0.02182580  0.12368535    -0.79200
C308        C  0.81314180  0.93863612  0.09500893     0.84300
O309        O  0.84135928  0.97885676  0.10461051    -0.66300
Ni310      Ni  0.93358160  0.05649136  0.18834720     1.27400
Ni311      Ni  0.84588142  0.95469328  0.19278147     1.26100
H312        H  0.78042689  0.97035745  0.15667982     0.38800
O313        O  0.89723572  0.09342794  0.35863677    -0.81100
O314        O  0.81717013  0.15656451  0.47783039    -0.65800
O315        O  0.84160334  0.09810153  0.40716133    -1.12400
C316        C  0.74372300  0.26461747  0.38519285     1.05800
O317        O  0.72810093  0.16235184  0.46715426    -0.79000
O318        O  0.68002853  0.17058800  0.41845610    -0.66600
Ni319      Ni  0.91607674  0.08484085  0.39585938     1.34900
C320        C  0.68638962  0.13052098  0.40220746     0.84500
O321        O  0.87301119  0.06887082  0.45924045    -0.79600
O322        O  0.94486921  0.07041150  0.43128028    -0.89800
C323        C  0.76607555  0.15485389  0.48466534     0.84100
O324        O  0.93304252  0.16121611  0.39968130    -0.68000
O325        O  0.73182553  0.26803627  0.41023321    -0.87300
C326        C  0.93339463  0.18784397  0.42192356     0.84900
C327        C  0.92369656  0.05893616  0.45394233     1.06500
H328        H  0.82312895  0.21935260  0.42504202     0.38300
O329        O  0.79878983  0.18767115  0.42474030    -1.10000
O330        O  0.73360657  0.11773243  0.39228585    -0.66600
Ni331      Ni  0.80268668  0.15792181  0.38956988     1.26300
O332        O  0.90280353  0.17318960  0.44183174    -0.66900
O333        O  0.76503372  0.22150011  0.37383935    -0.79200
C334        C  0.85298824  0.10034266  0.34497342     0.84300
O335        O  0.80999055  0.12471574  0.35440082    -0.66300
Ni336      Ni  0.73112005  0.21490532  0.43838434     1.27400
Ni337      Ni  0.83435630  0.12841182  0.44258752     1.26100
H338        H  0.82064213  0.06412945  0.40579958     0.38800
O339        O  0.11211022  0.47402514  0.35986114    -0.81100
O340        O  0.19162278  0.41703537  0.48004805    -0.65800
O341        O  0.16646051  0.47186175  0.40887997    -1.12400
C342        C  0.26748585  0.30606972  0.38732693     1.05800
O343        O  0.28094976  0.40962561  0.46954660    -0.79000
O344        O  0.32930434  0.40164219  0.42098320    -0.66600
Ni345      Ni  0.09175486  0.48242374  0.39695046     1.34900
C346        C  0.32294253  0.44162504  0.40482476     0.84500
O347        O  0.13271409  0.50196362  0.46065168    -0.79600
O348        O  0.06140573  0.49671997  0.43214578    -0.89800
C349        C  0.24287412  0.41633325  0.48696988     0.84100
O350        O  0.07775715  0.40536749  0.40060944    -0.68000
O351        O  0.27862399  0.30287530  0.41244962    -0.87300
C352        C  0.07920278  0.37916176  0.42280205     0.84900
C353        C  0.08169683  0.50964109  0.45497786     1.06500
H354        H  0.18734945  0.35174886  0.42687600     0.38300
O355        O  0.21114517  0.38382754  0.42683536    -1.10000
O356        O  0.27559844  0.45399115  0.39486665    -0.66600
Ni357      Ni  0.20726119  0.41238569  0.39160581     1.26300
O358        O  0.10698886  0.39645378  0.44332679    -0.66900
O359        O  0.24636968  0.34911029  0.37603104    -0.79200
C360        C  0.15690336  0.46768619  0.34662276     0.84300
O361        O  0.20010801  0.44439603  0.35640064    -0.66300
Ni362      Ni  0.27872174  0.35684588  0.44063812     1.27400
Ni363      Ni  0.17394041  0.44314731  0.44447811     1.26100
H364        H  0.18654202  0.50642267  0.40753069     0.38800
O365        O  0.62341200  0.50329042  0.27448523    -0.81100
O366        O  0.66460781  0.59142492  0.38669376    -0.65800
O367        O  0.60079716  0.57558591  0.31680567    -1.12400
C368        C  0.72401689  0.70264229  0.28581430     1.05800
O369        O  0.70113473  0.67564811  0.38156560    -0.79000
O370        O  0.62541900  0.70770892  0.34227545    -0.66600
Ni371      Ni  0.57231736  0.50806226  0.30414327     1.34900
C372        C  0.59729983  0.70639518  0.32041578     0.84500
O373        O  0.56805019  0.54562560  0.36846509    -0.79600
O374        O  0.51986635  0.51047860  0.33302710    -0.89800
C375        C  0.69144445  0.63312945  0.39564264     0.84100
O376        O  0.61873801  0.45886255  0.32398035    -0.68000
O377        O  0.71220719  0.72286737  0.30871882    -0.87300
C378        C  0.65947691  0.46597686  0.33993842     0.84900
C379        C  0.52436487  0.52369156  0.35791149     1.06500
H380        H  0.72539674  0.59896520  0.33455041     0.38300
O381        O  0.69080639  0.61980358  0.33330760    -1.10000
O382        O  0.61250739  0.67798137  0.29969945    -0.66600
Ni383      Ni  0.65925657  0.61102167  0.29811552     1.26300
O384        O  0.67208776  0.51335305  0.34947588    -0.66900
O385        O  0.71713517  0.65147310  0.28069317    -0.79200
C386        C  0.63109214  0.53990262  0.25658682     0.84300
O387        O  0.63009401  0.59129656  0.26307947    -0.66300
Ni388      Ni  0.70340182  0.69427155  0.34423922     1.27400
Ni389      Ni  0.63121773  0.58202081  0.35174511     1.26100
H390        H  0.56856431  0.59934229  0.31668039     0.38800
O391        O  0.37326167  0.05625682  0.27434357    -0.81100
O392        O  0.34644936  0.98219776  0.38788467    -0.65800
O393        O  0.40510932  0.99013203  0.31688395    -1.12400
C394        C  0.28069000  0.85959818  0.28974791     1.05800
O395        O  0.31187222  0.89646567  0.38457427    -0.79000
O396        O  0.38386333  0.85987385  0.34490557    -0.66600
Ni397      Ni  0.42907747  0.05693040  0.30195714     1.34900
C398        C  0.40948667  0.85744410  0.32246952     0.84500
O399        O  0.44300834  0.02610259  0.36655449    -0.79600
O400        O  0.48507157  0.05898120  0.32906281    -0.89800
C401        C  0.31978793  0.94125443  0.39756722     0.84100
O402        O  0.38580245  0.10856136  0.32205829    -0.68000
O403        O  0.29415717  0.84075559  0.31269919    -0.87300
C404        C  0.34783729  0.10310141  0.33945483     0.84900
C405        C  0.48503292  0.04701321  0.35411650     1.06500
H406        H  0.28253007  0.96776307  0.33692102     0.38300
O407        O  0.31696527  0.94726418  0.33562645    -1.10000
O408        O  0.39312925  0.88550796  0.30198715    -0.66600
Ni409      Ni  0.34586249  0.95209954  0.30004352     1.26300
O410        O  0.33624126  0.05629385  0.34965261    -0.66900
O411        O  0.28677881  0.91043704  0.28430878    -0.79200
C412        C  0.36835446  0.01744876  0.25710081     0.84300
O413        O  0.37236354  0.96718754  0.26454636    -0.66300
Ni414      Ni  0.30613594  0.87355193  0.34774958     1.27400
Ni415      Ni  0.37772821  0.98771223  0.35227370     1.26100
H416        H  0.43787946  0.96686334  0.31655863     0.38800
C417        C  0.45730329  0.81799584  0.32026312    -0.00400
C418        C  0.46367058  0.77807059  0.34062836    -0.12300
C419        C  0.50752089  0.74003956  0.34029357     0.01800
C420        C  0.54644495  0.74076366  0.31916973    -0.00500
C421        C  0.53955850  0.77892835  0.29820816    -0.12200
C422        C  0.49581571  0.81776406  0.29866109     0.01700
H423        H  0.43424941  0.77631268  0.35711532     0.14700
H424        H  0.56989336  0.78004936  0.28207933     0.14700
C425        C  0.49345713  0.85820663  0.27740953     0.36400
C426        C  0.51128522  0.70010566  0.36179276     0.36300
N427        N  0.49200605  0.89072972  0.26040503    -0.44000
N428        N  0.51427805  0.66814130  0.37900397    -0.44000
C429        C  0.37405570  0.47245537  0.39652789    -0.00400
C430        C  0.42624462  0.45463130  0.40656553    -0.12300
C431        C  0.47633493  0.47397844  0.39574704     0.01800
C432        C  0.47505513  0.51255407  0.37468883    -0.00500
C433        C  0.42361306  0.53420910  0.36627347    -0.12200
C434        C  0.37338938  0.51505490  0.37702288     0.01700
H435        H  0.42830483  0.42290789  0.42188269     0.14700
H436        H  0.42261529  0.56451141  0.35023314     0.14700
C437        C  0.32232738  0.53856599  0.36666973     0.36400
C438        C  0.52806476  0.44962891  0.40476294     0.36300
N439        N  0.28160877  0.55767818  0.35829173    -0.44000
N440        N  0.56938844  0.42973604  0.41191579    -0.44000
C441        C  0.27969526  0.25585146  0.37125111    -0.00400
C442        C  0.26066133  0.20495507  0.38102474    -0.12300
C443        C  0.27909230  0.15466265  0.37002464     0.01800
C444        C  0.31847031  0.15451961  0.34883101    -0.00500
C445        C  0.33444810  0.20607584  0.33792023    -0.12200
C446        C  0.31548985  0.25634471  0.34893143     0.01700
H447        H  0.23249413  0.20452618  0.39807284     0.14700
H448        H  0.36396352  0.20752188  0.32147218     0.14700
C449        C  0.33675302  0.30772143  0.33845015     0.36400
C450        C  0.25791044  0.10440988  0.38171796     0.36300
N451        N  0.35370416  0.34907146  0.33022934    -0.44000
N452        N  0.24054072  0.06439522  0.39118232    -0.44000
C453        C  0.97246196  0.23589929  0.42426526    -0.00400
C454        C  0.01219447  0.24283264  0.40371654    -0.12300
C455        C  0.04876350  0.28766755  0.40370524     0.01800
C456        C  0.04642035  0.32752446  0.42449754    -0.00500
C457        C  0.00888425  0.31991586  0.44576122    -0.12200
C458        C  0.97197692  0.27473816  0.44583418     0.01700
H459        H  0.01495602  0.21309816  0.38731906     0.14700
H460        H  0.00693111  0.35048223  0.46183851     0.14700
C461        C  0.93324599  0.27076608  0.46785815     0.36400
C462        C  0.08933933  0.29114745  0.38234229     0.36300
N463        N  0.90228179  0.26807198  0.48559524    -0.44000
N464        N  0.12200924  0.29375258  0.36531966    -0.44000
C465        C  0.73230898  0.31491359  0.36941002    -0.00400
C466        C  0.74853248  0.36579772  0.38069225    -0.12300
C467        C  0.72903448  0.41595486  0.37037512     0.01800
C468        C  0.69130745  0.41577870  0.34837953    -0.00500
C469        C  0.67926595  0.36464925  0.33565223    -0.12200
C470        C  0.69943966  0.31451269  0.34593373     0.01700
H471        H  0.77492125  0.36621198  0.39849160     0.14700
H472        H  0.65174476  0.36332253  0.31830438     0.14700
C473        C  0.68219789  0.26330866  0.33333002     0.36400
C474        C  0.74702072  0.46611741  0.38373341     0.36300
N475        N  0.66833090  0.22233656  0.32317826    -0.44000
N476        N  0.76215576  0.50588626  0.39457880    -0.44000
C477        C  0.53746323  0.05880213  0.36879661    -0.00400
C478        C  0.53576702  0.08202816  0.39468951    -0.12300
C479        C  0.58435810  0.10237713  0.40696632     0.01800
C480        C  0.63594431  0.09996100  0.39305433    -0.00500
C481        C  0.63801136  0.07215355  0.36819260    -0.12200
C482        C  0.58973739  0.05157653  0.35607613     0.01700
H483        H  0.49610502  0.08654492  0.40486294     0.14700
H484        H  0.67712829  0.06860117  0.35745488     0.14700
C485        C  0.59530637  0.02370924  0.33034467     0.36400
C486        C  0.57956580  0.12553312  0.43375397     0.36300
N487        N  0.60007708  0.00147964  0.30975088    -0.44000
N488        N  0.57530450  0.14374464  0.45527495    -0.44000
C489        C  0.74068857  0.74265111  0.26470013    -0.00400
C490        C  0.74270446  0.79938144  0.27176945    -0.12300
C491        C  0.75345179  0.84028368  0.25274298     0.01800
C492        C  0.76205739  0.82507277  0.22558897    -0.00500
C493        C  0.76019527  0.76834294  0.21855014    -0.12200
C494        C  0.75047024  0.72738771  0.23768632     0.01700
H495        H  0.73556547  0.81245391  0.29241388     0.14700
H496        H  0.76766986  0.75524451  0.19793972     0.14700
C497        C  0.75232239  0.67033693  0.22888084     0.36400
C498        C  0.75581574  0.89704004  0.26203874     0.36300
N499        N  0.75454078  0.62472464  0.22170604    -0.44000
N500        N  0.75778160  0.94231209  0.26973829    -0.44000
C501        C  0.86226427  0.03973569  0.26304066    -0.00400
C502        C  0.88508150  0.00885944  0.28409276    -0.12300
C503        C  0.88158671  0.02757157  0.31077592     0.01800
C504        C  0.85336154  0.07779610  0.31703258    -0.00500
C505        C  0.82773882  0.10715570  0.29612594    -0.12200
C506        C  0.83255135  0.08909367  0.26928221     0.01700
H507        H  0.90784239  0.97108770  0.27958498     0.14700
H508        H  0.80574509  0.14536531  0.30062653     0.14700
C509        C  0.80672669  0.12230032  0.24857595     0.36400
C510        C  0.90798744  0.99422289  0.33126444     0.36300
N511        N  0.78627770  0.14908254  0.23199195    -0.44000
N512        N  0.92960936  0.96764719  0.34757677    -0.44000
C513        C  0.34575315  0.07181735  0.17534974    -0.00400
C514        C  0.35932815  0.01619169  0.18044067    -0.12300
C515        C  0.36465446  0.99644614  0.20676568     0.01800
C516        C  0.35656856  0.03298356  0.22872045    -0.00500
C517        C  0.33994667  0.08800537  0.22344742    -0.12200
C518        C  0.33467282  0.10761272  0.19711025     0.01700
H519        H  0.36720195  0.98825354  0.16367005     0.14700
H520        H  0.33272491  0.11667393  0.23997683     0.14700
C521        C  0.32221471  0.16549838  0.19307459     0.36400
C522        C  0.38096127  0.93940988  0.21039405     0.36300
N523        N  0.31266525  0.21197996  0.18990399    -0.44000
N524        N  0.39401210  0.89366738  0.21322676    -0.44000
C525        C  0.03250095  0.05482022  0.11861861    -0.00400
C526        C  0.08382894  0.03609731  0.12863895    -0.12300
C527        C  0.13417121  0.05584332  0.11847316     0.01800
C528        C  0.13382996  0.09670586  0.09810230    -0.00500
C529        C  0.08208903  0.11168413  0.08654465    -0.12200
C530        C  0.03174803  0.09100402  0.09655467     0.01700
H531        H  0.08450255  0.00734878  0.14535284     0.14700
H532        H  0.08048416  0.14167428  0.07040929     0.14700
C533        C  0.98000314  0.11088671  0.08528015     0.36400
C534        C  0.18489592  0.03407442  0.13005460     0.36300
N535        N  0.93857438  0.12682685  0.07618411    -0.44000
N536        N  0.22528627  0.01608560  0.13933818    -0.44000
C537        C  0.23514300  0.73860025  0.22892687    -0.00400
C538        C  0.23020783  0.79567251  0.22361803    -0.12300
C539        C  0.24342852  0.83573567  0.24298603     0.01800
C540        C  0.26247778  0.81935305  0.26866527    -0.00500
C541        C  0.26743152  0.76222355  0.27404754    -0.12200
C542        C  0.25392845  0.72203897  0.25465402     0.01700
H543        H  0.21513140  0.80961466  0.20418578     0.14700
H544        H  0.28256661  0.74846883  0.29350118     0.14700
C545        C  0.26025343  0.66451988  0.26190724     0.36400
C546        C  0.23630506  0.89311833  0.23571847     0.36300
N547        N  0.26528100  0.61855725  0.26791168    -0.44000
N548        N  0.23053392  0.93902098  0.22978096    -0.44000
C549        C  0.14297286  0.52443417  0.26465312    -0.00400
C550        C  0.12358436  0.55745589  0.28593652    -0.12300
C551        C  0.12992428  0.54049903  0.31271356     0.01800
C552        C  0.15680386  0.48966777  0.31874578    -0.00500
C553        C  0.18013079  0.45875394  0.29766296    -0.12200
C554        C  0.17320975  0.47539360  0.27079256     0.01700
H555        H  0.10132375  0.59552402  0.28163461     0.14700
H556        H  0.20172047  0.42035761  0.30207362     0.14700
C557        C  0.19753105  0.44107068  0.24996979     0.36400
C558        C  0.10801779  0.57606609  0.33369511     0.36300
N559        N  0.21690336  0.41350311  0.23328529    -0.44000
N560        N  0.09038203  0.60421419  0.35060105    -0.44000
C561        C  0.95204931  0.81667490  0.17159275    -0.00400
C562        C  0.96148868  0.78104836  0.14947964    -0.12300
C563        C  0.00508842  0.74256851  0.14939210     0.01800
C564        C  0.04045976  0.73773950  0.17202830    -0.00500
C565        C  0.03079948  0.77211240  0.19447034    -0.12200
C566        C  0.98778321  0.81187676  0.19434399     0.01700
H567        H  0.93489035  0.78324823  0.13182508     0.14700
H568        H  0.05855703  0.76962528  0.21171148     0.14700
C569        C  0.98329092  0.84830455  0.21741440     0.36400
C570        C  0.01234413  0.70835904  0.12565913     0.36300
N571        N  0.98031565  0.87763028  0.23588993    -0.44000
N572        N  0.01816749  0.68131422  0.10654041    -0.44000
C573        C  0.19441698  0.41076251  0.14610927    -0.00400
C574        C  0.18318128  0.35933436  0.15837976    -0.12300
C575        C  0.20411627  0.30963763  0.14768552     0.01800
C576        C  0.23642773  0.31080983  0.12413880    -0.00500
C577        C  0.25266998  0.36200086  0.11363210    -0.12200
C578        C  0.23303272  0.41177457  0.12461872     0.01700
H579        H  0.15552118  0.35736446  0.17555733     0.14700
H580        H  0.27922510  0.36298191  0.09599696     0.14700
C581        C  0.25214815  0.46259259  0.11267017     0.36400
C582        C  0.18819961  0.25794260  0.15987446     0.36300
N583        N  0.26808083  0.50311983  0.10312666    -0.44000
N584        N  0.17569262  0.21643397  0.16962467    -0.44000
C585        C  0.65686373  0.48719094  0.17356504    -0.00400
C586        C  0.66455676  0.44943093  0.19449840    -0.12300
C587        C  0.65700505  0.46544449  0.22152769     0.01800
C588        C  0.64273876  0.52124700  0.22822936    -0.00500
C589        C  0.63788317  0.55942754  0.20713549    -0.12200
C590        C  0.64418800  0.54288511  0.18013485     0.01700
H591        H  0.67392692  0.40656353  0.18964461     0.14700
H592        H  0.62752225  0.60220173  0.21163126     0.14700
C593        C  0.63715446  0.58405899  0.15944692     0.36400
C594        C  0.66301029  0.42278434  0.24161701     0.36300
N595        N  0.63137383  0.61717387  0.14292726    -0.44000
N596        N  0.66741453  0.38820227  0.25752272    -0.44000
C597        C  0.54110158  0.31838138  0.07292858    -0.00400
C598        C  0.52359447  0.29441290  0.04840637    -0.12300
C599        C  0.48839402  0.24791577  0.04774911     0.01800
C600        C  0.46943646  0.22415065  0.07206729    -0.00500
C601        C  0.48830946  0.24719292  0.09653482    -0.12200
C602        C  0.52371717  0.29319272  0.09723864     0.01700
H603        H  0.53682947  0.31247567  0.02955044     0.14700
H604        H  0.47515578  0.22933162  0.11546047     0.14700
C605        C  0.54228865  0.31238891  0.12340586     0.36400
C606        C  0.47374902  0.22486061  0.02178015     0.36300
N607        N  0.55704401  0.32745178  0.14442815    -0.44000
N608        N  0.46211126  0.20621979  0.00098016    -0.44000
C609        C  0.87281809  0.45935315  0.09609597    -0.00400
C610        C  0.92440416  0.43513991  0.08880939    -0.12300
C611        C  0.97471523  0.45408143  0.09976949     0.01800
C612        C  0.97423143  0.49814308  0.11831039    -0.00500
C613        C  0.92378784  0.52466221  0.12442497    -0.12200
C614        C  0.87338219  0.50625936  0.11333328     0.01700
H615        H  0.92559767  0.39945798  0.07547236     0.14700
H616        H  0.92362397  0.55885626  0.13870857     0.14700
C617        C  0.82325042  0.53589946  0.12050427     0.36400
C618        C  0.02581597  0.42534038  0.09323270     0.36300
N619        N  0.78315173  0.55986219  0.12620099    -0.44000
N620        N  0.06689610  0.40248963  0.08811713    -0.44000
C621        C  0.81634066  0.15161133  0.14460578    -0.00400
C622        C  0.83100853  0.20328165  0.15607412    -0.12300
C623        C  0.81061417  0.25299283  0.14542938     0.01800
C624        C  0.77519700  0.25136410  0.12283553    -0.00500
C625        C  0.75625536  0.20024939  0.11310203    -0.12200
C626        C  0.77580021  0.15062550  0.12380593     0.01700
H627        H  0.86060753  0.20525092  0.17259049     0.14700
H628        H  0.72770230  0.19913786  0.09610328     0.14700
C629        C  0.75478460  0.10006090  0.11196257     0.36400
C630        C  0.82968685  0.30478685  0.15677985     0.36300
N631        N  0.73731434  0.05998531  0.10229575    -0.44000
N632        N  0.84490969  0.34617303  0.16602852    -0.44000
C633        C  0.78942085  0.44063663  0.92370056    -0.00400
C634        C  0.82005808  0.46135586  0.94560470    -0.12300
C635        C  0.80207675  0.45278271  0.97222687     0.01800
C636        C  0.75253796  0.42252453  0.97738693    -0.00500
C637        C  0.71977948  0.40599037  0.95540166    -0.12200
C638        C  0.73748217  0.41495338  0.92886756     0.01700
H639        H  0.85907565  0.48247530  0.94200212     0.14700
H640        H  0.68120668  0.38407781  0.95888149     0.14700
C641        C  0.70116778  0.39752690  0.90717609     0.36400
C642        C  0.83509082  0.47612359  0.99385428     0.36300
N643        N  0.67223341  0.38381311  0.88969518    -0.44000
N644        N  0.86133192  0.49501711  0.01120048    -0.44000
C645        C  0.24771744  0.13526704  0.97911069    -0.00400
C646        C  0.28470806  0.14448968  0.95783543    -0.12300
C647        C  0.26696585  0.13981452  0.93095547     0.01800
C648        C  0.21110389  0.12562649  0.92481274    -0.00500
C649        C  0.17541137  0.11177278  0.94590993    -0.12200
C650        C  0.19304808  0.11633220  0.97283957     0.01700
H651        H  0.32705576  0.15732837  0.96214455     0.14700
H652        H  0.13296970  0.09948657  0.94141155     0.14700
C653        C  0.15379673  0.10123913  0.99351993     0.36400
C654        C  0.30712922  0.14947022  0.90992184     0.36300
N655        N  0.12237714  0.08918797  0.01009377    -0.44000
N656        N  0.33914872  0.15695209  0.89297494    -0.44000
C657        C  0.05084666  0.24966684  0.82220404    -0.00400
C658        C  0.03509055  0.27537717  0.79804014    -0.12300
C659        C  0.98941265  0.31192981  0.79696993     0.01800
C660        C  0.95877188  0.32455940  0.82062026    -0.00500
C661        C  0.97413270  0.29735438  0.84459564    -0.12200
C662        C  0.01870238  0.25994291  0.84548972     0.01700
H663        H  0.05881059  0.26719687  0.77987774     0.14700
H664        H  0.95079255  0.30461670  0.86294318     0.14700
C665        C  0.02868226  0.23066997  0.87036095     0.36400
C666        C  0.97440039  0.33385070  0.77104899     0.36300
N667        N  0.03651269  0.20681335  0.89016905    -0.44000
N668        N  0.96287675  0.35040565  0.74995685    -0.44000
C669        C  0.53650100  0.51435747  0.01491947    -0.00400
C670        C  0.50496331  0.56212585  0.02012750    -0.12300
C671        C  0.46452743  0.58017144  0.00180637     0.01800
C672        C  0.45412800  0.54919548  0.97816334    -0.00500
C673        C  0.48530765  0.50115350  0.97303759    -0.12200
C674        C  0.52594768  0.48321001  0.99130669     0.01700
H675        H  0.51272903  0.58594914  0.03835134     0.14700
H676        H  0.47775586  0.47757882  0.95471516     0.14700
C677        C  0.55384153  0.43128711  0.98603087     0.36400
C678        C  0.43753060  0.63268101  0.00672694     0.36300
N679        N  0.57520875  0.38922101  0.98165076    -0.44000
N680        N  0.41698196  0.67532527  0.01063541    -0.44000
C681        C  0.20610624  0.62873572  0.06839048    -0.00400
C682        C  0.17196609  0.61220510  0.04683955    -0.12300
C683        C  0.18773707  0.62209101  0.01995718     0.01800
C684        C  0.23924227  0.64847465  0.01415221    -0.00500
C685        C  0.27435457  0.66217157  0.03573030    -0.12200
C686        C  0.25845142  0.65278381  0.06245864     0.01700
H687        H  0.13192568  0.59355009  0.05100148     0.14700
H688        H  0.31378054  0.68212561  0.03180604     0.14700
C689        C  0.29713139  0.66844951  0.08348518     0.36400
C690        C  0.15002751  0.60455741  0.99884343     0.36300
N691        N  0.32822413  0.68116136  0.10025684    -0.44000
N692        N  0.11966775  0.59054831  0.98198574    -0.44000
C693        C  0.02800604  0.56302982  0.87511388    -0.00400
C694        C  0.07906867  0.54310918  0.86542946    -0.12300
C695        C  0.12944333  0.56372831  0.87528132     0.01800
C696        C  0.12908115  0.60514667  0.89561027    -0.00500
C697        C  0.07750487  0.62062484  0.90711965    -0.12200
C698        C  0.02717837  0.60045820  0.89682869     0.01700
H699        H  0.07944880  0.51375728  0.84877553     0.14700
H700        H  0.07593237  0.65135829  0.92311151     0.14700
C701        C  0.97553113  0.62307982  0.90693627     0.36400
C702        C  0.17986111  0.54384614  0.86266823     0.36300
N703        N  0.93417413  0.64153248  0.91488952    -0.44000
N704        N  0.21978603  0.52760672  0.85225175    -0.44000
C705        C  0.22731656  0.82120368  0.86886262    -0.00400
C706        C  0.19541559  0.81767992  0.84526759    -0.12300
C707        C  0.17353033  0.86567432  0.83334542     0.01800
C708        C  0.18311172  0.91840808  0.84545352    -0.00500
C709        C  0.22022449  0.92162288  0.86733077    -0.12200
C710        C  0.24237642  0.87386937  0.87893003     0.01700
H711        H  0.18488369  0.77733029  0.83704665     0.14700
H712        H  0.23016012  0.96140481  0.87633850     0.14700
C713        C  0.27955872  0.87996817  0.90170236     0.36400
C714        C  0.14057437  0.85892915  0.80914597     0.36300
N715        N  0.30945463  0.88488314  0.91988719    -0.44000
N716        N  0.11434222  0.85348530  0.78970602    -0.44000
C717        C  0.53417096  0.02436915  0.97346636    -0.00400
C718        C  0.54886507  0.00850422  0.99966531    -0.12300
C719        C  0.51073539  0.01225267  0.02071966     0.01800
C720        C  0.45669536  0.03367475  0.01587951    -0.00500
C721        C  0.44169488  0.04873026  0.98958446    -0.12200
C722        C  0.47960687  0.04418252  0.96843788     0.01700
H723        H  0.58981053  0.99122002  0.00361877     0.14700
H724        H  0.40074561  0.06596249  0.98560082     0.14700
C725        C  0.46127871  0.06116840  0.94198437     0.36400
C726        C  0.52823442  0.99239176  0.04682534     0.36300
N727        N  0.44614758  0.07456088  0.92083830    -0.44000
N728        N  0.54277079  0.97618825  0.06759241    -0.44000
C729        C  0.74823811  0.93372531  0.01345844    -0.00400
C730        C  0.79955488  0.95971700  0.01907575    -0.12300
C731        C  0.82079131  0.96353634  0.04539010     0.01800
C732        C  0.79089387  0.94059690  0.06694276    -0.00500
C733        C  0.73846613  0.91667600  0.06153483    -0.12200
C734        C  0.71682503  0.91348462  0.03522586     0.01700
H735        H  0.82411907  0.97606818  0.00266945     0.14700
H736        H  0.71443450  0.89966264  0.07796731     0.14700
C737        C  0.66366553  0.88696243  0.03113852     0.36400
C738        C  0.87500828  0.98782193  0.04936973     0.36300
N739        N  0.62094961  0.86583968  0.02796793    -0.44000
N740        N  0.91865218  0.00694692  0.05252169    -0.44000
C741        C  0.53240408  0.83696529  0.91973682    -0.00400
C742        C  0.48891332  0.83189745  0.90074628    -0.12300
C743        C  0.45146424  0.78759877  0.90145725     0.01800
C744        C  0.45601865  0.74738882  0.92182009    -0.00500
C745        C  0.49824195  0.75273911  0.94123714    -0.12200
C746        C  0.53685982  0.79630347  0.94012525     0.01700
H747        H  0.48401344  0.86261565  0.88507922     0.14700
H748        H  0.50278203  0.72116662  0.95654059     0.14700
C749        C  0.58258113  0.79567006  0.95904266     0.36400
C750        C  0.40845071  0.78459363  0.88107901     0.36300
N751        N  0.61954550  0.79438361  0.97403564    -0.44000
N752        N  0.37426677  0.78246278  0.86462267    -0.44000
C753        C  0.86424749  0.98178125  0.89151536    -0.00400
C754        C  0.91500452  0.97645924  0.90581051    -0.12300
C755        C  0.96529968  0.99629230  0.89529125     0.01800
C756        C  0.96566925  0.02149222  0.86981315    -0.00500
C757        C  0.91461573  0.03177971  0.85684195    -0.12200
C758        C  0.86425651  0.01303195  0.86746201     0.01700
H759        H  0.91608475  0.95448850  0.92478064     0.14700
H760        H  0.91426499  0.05308230  0.83765616     0.14700
C761        C  0.81416271  0.02537472  0.85247903     0.36400
C762        C  0.01618491  0.98684796  0.91013862     0.36300
N763        N  0.77456622  0.03624605  0.84024982    -0.44000
N764        N  0.05705070  0.97956807  0.92203078    -0.44000
C765        C  0.77256272  0.75665975  0.87234187    -0.00400
C766        C  0.79289005  0.75687842  0.84594884    -0.12300
C767        C  0.81270435  0.70796763  0.83388727     0.01800
C768        C  0.81243330  0.65751757  0.84844204    -0.00500
C769        C  0.78697499  0.65674293  0.87383409    -0.12200
C770        C  0.76707923  0.70544134  0.88578788     0.01700
H771        H  0.79579287  0.79569920  0.83520361     0.14700
H772        H  0.78507693  0.61846472  0.88508728     0.14700
C773        C  0.74159540  0.70158569  0.91206032     0.36400
C774        C  0.83353818  0.71123107  0.80669439     0.36300
N775        N  0.72113962  0.69834998  0.93306927    -0.44000
N776        N  0.85006141  0.71414034  0.78487647    -0.44000
C777        C  0.74740006  0.25194582  0.72187681    -0.00400
C778        C  0.73533917  0.23864314  0.74864367    -0.12300
C779        C  0.74442252  0.27657800  0.76948141     0.01800
C780        C  0.76634613  0.32962535  0.76377953    -0.00500
C781        C  0.77833394  0.34305415  0.73696368    -0.12200
C782        C  0.76967359  0.30479759  0.71610257     0.01700
H783        H  0.71703592  0.19886204  0.75332581     0.14700
H784        H  0.79599151  0.38308062  0.73231230     0.14700
C785        C  0.78537342  0.32075928  0.68917290     0.36400
C786        C  0.72969778  0.25964716  0.79639024     0.36300
N787        N  0.79825281  0.33392559  0.66770320    -0.44000
N788        N  0.71806641  0.24560711  0.81789014    -0.44000
C789        C  0.74843381  0.14228624  0.51268481    -0.00400
C790        C  0.69367815  0.12279254  0.51682989    -0.12300
C791        C  0.67161654  0.11729893  0.54279381     0.01800
C792        C  0.70457548  0.13131731  0.56522689    -0.00500
C793        C  0.76019616  0.14720060  0.56125025    -0.12200
C794        C  0.78236614  0.15276763  0.53540387     0.01700
H795        H  0.66712742  0.11354137  0.49967956     0.14700
H796        H  0.78609825  0.15716241  0.57856406     0.14700
C797        C  0.83872471  0.17265316  0.53317209     0.36400
C798        C  0.61407104  0.10145306  0.54577771     0.36300
N799        N  0.88396484  0.18870502  0.53194514    -0.44000
N800        N  0.56786301  0.08908922  0.54820792    -0.44000
C801        C  0.64718634  0.03908712  0.76221152    -0.00400
C802        C  0.67249955  0.98725729  0.76706960    -0.12300
C803        C  0.67625832  0.96525613  0.79314424     0.01800
C804        C  0.65369911  0.99491964  0.81507860    -0.00500
C805        C  0.63092028  0.04792651  0.81035744    -0.12200
C806        C  0.62776587  0.07020759  0.78437910     0.01700
H807        H  0.68828096  0.96302067  0.75027095     0.14700
H808        H  0.61449296  0.07192899  0.82709249     0.14700
C809        C  0.60140895  0.12351560  0.78097164     0.36400
C810        C  0.70055111  0.91102330  0.79651360     0.36300
N811        N  0.58024463  0.16620587  0.77821003    -0.44000
N812        N  0.72001767  0.86752019  0.79916131    -0.44000
C813        C  0.26352984  0.32581966  0.72592331    -0.00400
C814        C  0.27510481  0.26913941  0.72160533    -0.12300
C815        C  0.26539803  0.22962889  0.74154722     0.01800
C816        C  0.24362590  0.24638508  0.76668632    -0.00500
C817        C  0.23204444  0.30303254  0.77097645    -0.12200
C818        C  0.24147160  0.34246470  0.75100516     0.01700
H819        H  0.29287103  0.25539061  0.70264196     0.14700
H820        H  0.21418078  0.31682134  0.78990969     0.14700
C821        C  0.22655042  0.39927753  0.75671591     0.36400
C822        C  0.27913888  0.17256817  0.73566958     0.36300
N823        N  0.21442536  0.44474528  0.76132063    -0.44000
N824        N  0.29006699  0.12684291  0.73095467    -0.44000
C825        C  0.30908492  0.43883028  0.56683142    -0.00400
C826        C  0.27171978  0.47818742  0.55648556    -0.12300
C827        C  0.24749231  0.47091011  0.53086447     0.01800
C828        C  0.26106240  0.42372899  0.51524010    -0.00500
C829        C  0.29970371  0.38543891  0.52540997    -0.12200
C830        C  0.32323250  0.39228675  0.55098127     0.01700
H831        H  0.25997153  0.51355732  0.56880138     0.14700
H832        H  0.31144719  0.34976741  0.51328607     0.14700
C833        C  0.36172480  0.35078985  0.56068215     0.36400
C834        C  0.21042524  0.51315780  0.52084866     0.36300
N835        N  0.39253482  0.31765117  0.56853740    -0.44000
N836        N  0.18103907  0.54761698  0.51308753    -0.44000
C837        C  0.34445939  0.58038283  0.81896047    -0.00400
C838        C  0.36372758  0.52594114  0.81440366    -0.12300
C839        C  0.37005502  0.50440186  0.78822226     0.01800
C840        C  0.35794521  0.53798440  0.76577787    -0.00500
C841        C  0.33610294  0.59154725  0.77048196    -0.12200
C842        C  0.32915513  0.61273541  0.79664856     0.01700
H843        H  0.37493336  0.50032910  0.83146511     0.14700
H844        H  0.32566164  0.61786072  0.75357065     0.14700
C845        C  0.30995885  0.66904835  0.79994288     0.36400
C846        C  0.39145325  0.44883389  0.78511255     0.36300
N847        N  0.29477288  0.71424619  0.80260490    -0.44000
N848        N  0.40848990  0.40424350  0.78262512    -0.44000
C849        C  0.54833313  0.25163208  0.67082978    -0.00400
C850        C  0.50178796  0.23737177  0.65532266    -0.12300
C851        C  0.45407377  0.27066554  0.65537377     0.01800
C852        C  0.45276186  0.32013864  0.67096692    -0.00500
C853        C  0.49930101  0.33377443  0.68684679    -0.12200
C854        C  0.54699610  0.30012175  0.68677616     0.01700
H855        H  0.50279252  0.19997569  0.64309554     0.14700
H856        H  0.49915119  0.37170300  0.69865185     0.14700
C857        C  0.59506546  0.31781363  0.70202189     0.36400
C858        C  0.40687893  0.25206557  0.63963053     0.36300
N859        N  0.63351001  0.33254333  0.71416582    -0.44000
N860        N  0.36919645  0.23699066  0.62700641    -0.44000
C861        C  0.04246843  0.52688429  0.47623643    -0.00400
C862        C  0.04833404  0.50324932  0.50180407    -0.12300
C863        C  0.00799832  0.51158428  0.52163989     0.01800
C864        C  0.96041265  0.54412882  0.51601775    -0.00500
C865        C  0.95428521  0.56748540  0.49036150    -0.12200
C866        C  0.99491718  0.55946521  0.47056448     0.01700
H867        H  0.08369576  0.47662762  0.50605366     0.14700
H868        H  0.91880160  0.59395061  0.48609983     0.14700
C869        C  0.98785970  0.58695319  0.44500965     0.36400
C870        C  0.01589636  0.48507613  0.54737557     0.36300
N871        N  0.98219122  0.60933177  0.42463211    -0.44000
N872        N  0.02236225  0.46378004  0.56797159    -0.44000
C873        C  0.74919033  0.64427688  0.47784704    -0.00400
C874        C  0.78320093  0.66231950  0.45682595    -0.12300
C875        C  0.76582889  0.65744943  0.42994700     0.01800
C876        C  0.71338386  0.63366682  0.42361539    -0.00500
C877        C  0.68093333  0.61254309  0.44448721    -0.12200
C878        C  0.69812250  0.61774926  0.47139426     0.01700
H879        H  0.82271408  0.68191243  0.46141678     0.14700
H880        H  0.64119534  0.59345895  0.43984539     0.14700
C881        C  0.66251542  0.59491191  0.49188624     0.36400
C882        C  0.80319533  0.67667296  0.40928005     0.36300
N883        N  0.63396693  0.57658665  0.50828599    -0.44000
N884        N  0.83330747  0.69207362  0.39281160    -0.44000
C885        C  0.84812173  0.58590312  0.67502603    -0.00400
C886        C  0.86488437  0.53093157  0.67960616    -0.12300
C887        C  0.87140128  0.51000830  0.70569281     0.01800
C888        C  0.86291902  0.54492541  0.72824816    -0.00500
C889        C  0.84314353  0.59929498  0.72357143    -0.12200
C890        C  0.83483171  0.61955841  0.69735214     0.01700
H891        H  0.87358906  0.50404882  0.66252231     0.14700
H892        H  0.83450762  0.62655788  0.74049026     0.14700
C893        C  0.81450339  0.67537880  0.69399314     0.36400
C894        C  0.88779309  0.45289539  0.70818681     0.36300
N895        N  0.79769378  0.71996884  0.69138524    -0.44000
N896        N  0.90024951  0.40671220  0.70926312    -0.44000
C897        C  0.63400768  0.60846278  0.59993233    -0.00400
C898        C  0.63920153  0.57361091  0.62241946    -0.12300
C899        C  0.59230928  0.55127364  0.63496618     0.01800
C900        C  0.53851672  0.56191249  0.62454064    -0.00500
C901        C  0.53315507  0.59348378  0.60116519    -0.12200
C902        C  0.57980584  0.61762185  0.58909856     0.01700
H903        H  0.67988429  0.56566044  0.63113493     0.14700
H904        H  0.49189598  0.60241079  0.59332303     0.14700
C905        C  0.56952265  0.65405268  0.56666781     0.36400
C906        C  0.60063238  0.51872404  0.65898797     0.36300
N907        N  0.56082267  0.68375548  0.54893498    -0.44000
N908        N  0.60773123  0.49301675  0.67830144    -0.44000
C909        C  0.72877572  0.82222466  0.61988042    -0.00400
C910        C  0.74609882  0.87329167  0.60967351    -0.12300
C911        C  0.72437047  0.92319412  0.61957400     0.01800
C912        C  0.68458954  0.92268595  0.64063907    -0.00500
C913        C  0.66935205  0.87099806  0.65157623    -0.12200
C914        C  0.69050198  0.82115555  0.64117824     0.01700
H915        H  0.77492462  0.87399762  0.59288498     0.14700
H916        H  0.63865760  0.86901435  0.66749269     0.14700
C917        C  0.66832103  0.76941335  0.65077657     0.36400
C918        C  0.74185375  0.97336755  0.60644805     0.36300
N919        N  0.65042160  0.72770609  0.65805256    -0.44000
N920        N  0.75610903  0.01307657  0.59557394    -0.44000
C921        C  0.96176250  0.04063155  0.47546689    -0.00400
C922        C  0.95321240  0.06125818  0.50157305    -0.12300
C923        C  0.99298522  0.05331263  0.52175138     0.01800
C924        C  0.04268096  0.02409389  0.51592556    -0.00500
C925        C  0.05097222  0.00285255  0.48988043    -0.12200
C926        C  0.01081620  0.01030344  0.46976899     0.01700
H927        H  0.91617237  0.08534837  0.50602826     0.14700
H928        H  0.08788589  0.97846684  0.48548890     0.14700
C929        C  0.01994486  0.98446117  0.44381541     0.36400
C930        C  0.98208163  0.07668901  0.54808604     0.36300
N931        N  0.02703931  0.96342245  0.42309025    -0.44000
N932        N  0.97312136  0.09530607  0.56917653    -0.44000
C933        C  0.15647340  0.99104106  0.67464450    -0.00400
C934        C  0.13629189  0.04523056  0.67913008    -0.12300
C935        C  0.13004137  0.06703993  0.70520123     0.01800
C936        C  0.14435074  0.03454422  0.72766201    -0.00500
C937        C  0.16694574  0.98121633  0.72311740    -0.12200
C938        C  0.17298562  0.95934397  0.69699175     0.01700
H939        H  0.12372988  0.07031162  0.66209638     0.14700
H940        H  0.17840939  0.95561210  0.74013728     0.14700
C941        C  0.19212779  0.90298780  0.69383823     0.36400
C942        C  0.10510434  0.12115300  0.70827647     0.36300
N943        N  0.20709674  0.85768912  0.69129589    -0.44000
N944        N  0.08480883  0.16436129  0.71083043    -0.44000
C945        C  0.25547087  0.93307093  0.47842476    -0.00400
C946        C  0.22399077  0.91292869  0.45677452    -0.12300
C947        C  0.24305587  0.91808486  0.43029264     0.01800
C948        C  0.29496864  0.94384803  0.42497270    -0.00500
C949        C  0.32372866  0.96887201  0.44637430    -0.12200
C950        C  0.30444375  0.96378448  0.47294649     0.01700
H951        H  0.18562809  0.89078912  0.46059797     0.14700
H952        H  0.36240725  0.99039914  0.44251623     0.14700
C953        C  0.33559861  0.99077481  0.49419789     0.36400
C954        C  0.20833235  0.89607402  0.40895243     0.36300
N955        N  0.36038840  0.01262770  0.51121635    -0.44000
N956        N  0.18051768  0.87835463  0.39189706    -0.44000
C957        C  0.03789331  0.83187535  0.57000551    -0.00400
C958        C  0.00088798  0.82340961  0.59157409    -0.12300
C959        C  0.96431775  0.77857187  0.59189790     0.01800
C960        C  0.96401486  0.74020551  0.57042144    -0.00500
C961        C  0.99946428  0.74887417  0.54841867    -0.12200
C962        C  0.03636119  0.79400740  0.54801668     0.01700
H963        H  0.99995030  0.85218373  0.60841713     0.14700
H964        H  0.99942054  0.71943175  0.53182367     0.14700
C965        C  0.07248416  0.79938174  0.52499898     0.36400
C966        C  0.92598721  0.77393573  0.61415616     0.36300
N967        N  0.10129945  0.80352275  0.50648319    -0.44000
N968        N  0.89503723  0.77023638  0.63186606    -0.44000
C969        C  0.36902446  0.97184582  0.59881492    -0.00400
C970        C  0.42129815  0.95957034  0.58721817    -0.12300
C971        C  0.47061904  0.98158107  0.59787765     0.01800
C972        C  0.46841161  0.01572209  0.62088840    -0.00500
C973        C  0.41644412  0.03163384  0.63121025    -0.12200
C974        C  0.36692022  0.01135621  0.62002641     0.01700
H975        H  0.42418290  0.93093963  0.57037165     0.14700
H976        H  0.41463527  0.05940333  0.64845987     0.14700
C977        C  0.31512566  0.03215581  0.63085932     0.36400
C978        C  0.52313649  0.96558649  0.58602376     0.36300
N979        N  0.27375579  0.04955406  0.63934089    -0.44000
N980        N  0.56537610  0.95315343  0.57657640    -0.44000
C981        C  0.31848364  0.65346767  0.64436445    -0.00400
C982        C  0.29032195  0.65038222  0.61953364    -0.12300
C983        C  0.26807320  0.69776112  0.60748031     0.01800
C984        C  0.27502809  0.75022480  0.61983673    -0.00500
C985        C  0.29821489  0.75292827  0.64574453    -0.12200
C986        C  0.31915451  0.70511551  0.65824692     0.01700
H987        H  0.28698746  0.61109874  0.60896425     0.14700
H988        H  0.30187249  0.79270451  0.65583670     0.14700
C989        C  0.34036415  0.71051176  0.68538657     0.36400
C990        C  0.23741714  0.69121262  0.58255027     0.36300
N991        N  0.35677748  0.71476981  0.70725066    -0.44000
N992        N  0.21229985  0.68573442  0.56277427    -0.44000
loop_ 
_geom_bond_atom_site_label_1 
_geom_bond_atom_site_label_2 
_geom_bond_distance 
_geom_bond_site_symmetry_2 
_ccdc_geom_bond_type 
O1           Ni7   1.925       .  S
O1           C22   1.272       .  A
O2          Ni25   1.931       .  S
O2           C11   1.277       .  A
O3           Ni7   1.880       .  S
O3          Ni25   1.887       .  S
O3          Ni19   1.888       .  S
O3           H26   0.966       .  S
C4           O21   1.267       .  A
C4           O13   1.266   1_545  A
C4          C924   1.473       .  S
O5          Ni24   1.909       .  S
O5           C11   1.270       .  A
O6          Ni24   1.904       .  S
O6            C8   1.279       .  A
Ni7          O10   1.913       .  S
Ni7          O12   1.902       .  S
C8           O18   1.289       .  A
C8          C957   1.498       .  S
O9          Ni25   1.949       .  S
O9           C15   1.288       .  A
O10          C15   1.280       .  A
C11         C933   1.489       .  S
O12          C14   1.267       .  A
O13         Ni24   1.917       .  S
C14          O20   1.272       .  A
C14         C969   1.494       .  S
C15         C984   1.484       .  S
H16          O17   0.963   1_545  S
O17         Ni25   1.942       .  S
O17         Ni19   1.907       .  S
O17         Ni24   1.902       .  S
O18         Ni19   1.972       .  S
Ni19         O23   1.917       .  S
Ni19         O21   1.906   1_565  S
O20         Ni25   1.926       .  S
C22          O23   1.276       .  A
C22         C945   1.487       .  S
O27         Ni33   1.918       .  S
O27          C48   1.271       .  A
O28         Ni51   1.927       .  S
O28          C37   1.275       .  A
O29         Ni33   1.876       .  S
O29         Ni51   1.883       .  S
O29         Ni45   1.888       .  S
O29          H52   0.965       .  S
C30          O47   1.268       .  A
C30          O39   1.269       .  A
C30         C864   1.476       .  S
O31         Ni50   1.915       .  S
O31          C37   1.272       .  A
O32         Ni50   1.905       .  S
O32          C34   1.277       .  A
Ni33         O36   1.904       .  S
Ni33         O38   1.906       .  S
C34          O44   1.286       .  A
C34         C960   1.481       .  S
O35         Ni51   1.945       .  S
O35          C41   1.287       .  A
O36          C41   1.277       .  A
C37         C885   1.487       .  S
O38          C40   1.267       .  A
O39         Ni50   1.924       .  S
C40          O46   1.274       .  A
C40         C897   1.498       .  S
C41         C909   1.472       .  S
H42          O43   0.966       .  S
O43         Ni51   1.944       .  S
O43         Ni45   1.910       .  S
O43         Ni50   1.903       .  S
O44         Ni45   1.967       .  S
Ni45         O49   1.918       .  S
Ni45         O47   1.906       .  S
O46         Ni51   1.929       .  S
C48          O49   1.276       .  A
C48         C873   1.485       .  S
O53         Ni59   1.907       .  S
O53          C74   1.269       .  A
O54         Ni77   1.924       .  S
O54          C63   1.278       .  A
O55         Ni59   1.906       .  S
O55         Ni77   1.909       .  S
O55         Ni71   1.946       .  S
O55          H78   0.966       .  S
C56          O73   1.288       .  A
C56          O65   1.279       .  A
C56         C900   1.480       .  S
O57         Ni76   1.922       .  S
O57          C63   1.273       .  A
O58         Ni76   1.909       .  S
O58          C60   1.267       .  A
Ni59         O62   1.924       .  S
Ni59         O64   1.893       .  S
C60          O70   1.273       .  A
C60         C981   1.496       .  S
O61         Ni77   1.909       .  S
O61          C67   1.267       .  A
O62          C67   1.268       .  A
C63         C840   1.495       .  S
O64          C66   1.274       .  A
O65         Ni76   1.912       .  S
C66          O72   1.290       .  A
C66         C852   1.485       .  S
C67         C813   1.488       .  S
H68          O69   0.966       .  S
O69         Ni77   1.888       .  S
O69         Ni71   1.882       .  S
O69         Ni76   1.878       .  S
O70         Ni71   1.928       .  S
Ni71         O75   1.924       .  S
Ni71         O73   1.949       .  S
O72         Ni77   1.974       .  S
C74          O75   1.274       .  A
C74         C825   1.473       .  S
O79         Ni85   1.910       .  S
O79         C100   1.270       .  A
O80        Ni103   1.924       .  S
O80          C89   1.279       .  A
O81         Ni85   1.904       .  S
O81        Ni103   1.904       .  S
O81         Ni97   1.939       .  S
O81         H104   0.964       .  S
C82          O99   1.285       .  A
C82          O91   1.279       .  A
C82         C972   1.474       .  S
O83        Ni102   1.922       .  S
O83          C89   1.272       .  A
O84        Ni102   1.906   1_565  S
O84          C86   1.268       .  A
Ni85         O88   1.922       .  S
Ni85         O90   1.906       .  S
C86          O96   1.272   1_565  A
C86         C912   1.497       .  S
O87        Ni103   1.907       .  S
O87          C93   1.271       .  A
O88          C93   1.268       .  A
C89         C801   1.490       .  S
O90          C92   1.276       .  A
O91        Ni102   1.911       .  S
C92          O98   1.286       .  A
C92         C849   1.472       .  S
C93         C777   1.479       .  S
H94          O95   0.966       .  S
O95        Ni103   1.892       .  S
O95         Ni97   1.880       .  S
O95        Ni102   1.876       .  S
O96         Ni97   1.928       .  S
Ni97        O101   1.916       .  S
Ni97         O99   1.941       .  S
O98        Ni103   1.966       .  S
C100        O101   1.273       .  A
C100        C792   1.477       .  S
O105       Ni111   1.912       .  S
O105        C126   1.271       .  A
O106       Ni129   1.927       .  S
O106        C115   1.277       .  A
O107       Ni111   1.906       .  S
O107       Ni129   1.908       .  S
O107       Ni123   1.939       .  S
O107        H130   0.969   1_565  S
C108        O125   1.288       .  A
C108        O117   1.279       .  A
C108        C765   1.481       .  S
O109       Ni128   1.922       .  S
O109        C115   1.272       .  A
O110       Ni128   1.904       .  S
O110        C112   1.267       .  A
Ni111       O114   1.919       .  S
Ni111       O116   1.909       .  S
C112        O122   1.273       .  A
C112        C753   1.498       .  S
O113       Ni129   1.901   1_545  S
O113        C119   1.267       .  A
O114        C119   1.266   1_565  A
C115        C729   1.493   1_556  S
O116        C118   1.280       .  A
O117       Ni128   1.910       .  S
C118        O124   1.289       .  A
C118        C741   1.498       .  S
C119        C717   1.475       .  S
H120        O121   0.965       .  S
O121       Ni129   1.883       .  S
O121       Ni123   1.887       .  S
O121       Ni128   1.879       .  S
O122       Ni123   1.932       .  S
Ni123       O127   1.929       .  S
Ni123       O125   1.945       .  S
O124       Ni129   1.974       .  S
C126        O127   1.277       .  A
C126        C804   1.491       .  S
O131       Ni137   1.919       .  S
O131        C152   1.272       .  A
O132       Ni155   1.925       .  S
O132        C141   1.280       .  A
O133       Ni137   1.903       .  S
O133       Ni155   1.911       .  S
O133       Ni149   1.938       .  S
O133        H156   0.966       .  S
C134        O151   1.286       .  A
C134        O143   1.279       .  A
C134        C705   1.477       .  S
O135       Ni154   1.927       .  S
O135        C141   1.272       .  A
O136       Ni154   1.897       .  S
O136        C138   1.267       .  A
Ni137       O140   1.927       .  S
Ni137       O142   1.908       .  S
C138        O148   1.272       .  A
C138        C696   1.489       .  S
O139       Ni155   1.906       .  S
O139        C145   1.269       .  A
O140        C145   1.269       .  A
C141        C684   1.498   1_556  S
O142        C144   1.277       .  A
O143       Ni154   1.909       .  S
C144        O150   1.289       .  A
C144        C744   1.481       .  S
C145        C672   1.469       .  S
H146        O147   0.966       .  S
O147       Ni155   1.888       .  S
O147       Ni149   1.887       .  S
O147       Ni154   1.878       .  S
O148       Ni149   1.925       .  S
Ni149       O153   1.925       .  S
Ni149       O151   1.947       .  S
O150       Ni155   1.974       .  S
C152        O153   1.276       .  A
C152        C837   1.488       .  S
O157       Ni163   1.920       .  S
O157        C178   1.272       .  A
O158       Ni181   1.925       .  S
O158        C167   1.276       .  A
O159       Ni163   1.874       .  S
O159       Ni181   1.881       .  S
O159       Ni175   1.889       .  S
O159        H182   0.965       .  S
C160        O177   1.268       .  A
C160        O169   1.270       .  A
C160        C816   1.488       .  S
O161       Ni180   1.919       .  S
O161        C167   1.273       .  A
O162       Ni180   1.906       .  S
O162        C164   1.278       .  A
Ni163       O166   1.907       .  S
Ni163       O168   1.902   1_545  S
C164        O174   1.288       .  A
C164        C657   1.490       .  S
O165       Ni181   1.951       .  S
O165        C171   1.288       .  A
O166        C171   1.279       .  A
C167        C648   1.487       .  S
O168        C170   1.265       .  A
O169       Ni180   1.927       .  S
C170        O176   1.274   1_565  A
C170        C708   1.494       .  S
C171        C756   1.484   1_455  S
H172        O173   0.966       .  S
O173       Ni181   1.941       .  S
O173       Ni175   1.907       .  S
O173       Ni180   1.902       .  S
O174       Ni175   1.971       .  S
Ni175       O179   1.923       .  S
Ni175       O177   1.907       .  S
O176       Ni181   1.930       .  S
C178        O179   1.279       .  A
C178        C936   1.491       .  S
O183       Ni189   1.924       .  S
O183        C204   1.273       .  A
O184       Ni207   1.933       .  S
O184        C193   1.277       .  A
O185       Ni189   1.878       .  S
O185       Ni207   1.890       .  S
O185       Ni201   1.885       .  S
O185        H208   0.965       .  S
C186        O203   1.269       .  A
C186        O195   1.268       .  A
C186        C780   1.481       .  S
O187       Ni206   1.918       .  S
O187        C193   1.271       .  A
O188       Ni206   1.903       .  S
O188        C190   1.276       .  A
Ni189       O192   1.904       .  S
Ni189       O194   1.903       .  S
C190        O200   1.289       .  A
C190        C660   1.504       .  S
O191       Ni207   1.939       .  S
O191        C197   1.285       .  A
O192        C197   1.278       .  A
C193        C633   1.494       .  S
O194        C196   1.266       .  A
O195       Ni206   1.920       .  S
C196        O202   1.275       .  A
C196        C768   1.490       .  S
C197        C693   1.466   1_655  S
H198        O199   0.966       .  S
O199       Ni207   1.933       .  S
O199       Ni201   1.914       .  S
O199       Ni206   1.902       .  S
O200       Ni201   1.980       .  S
Ni201       O205   1.927       .  S
Ni201       O203   1.905       .  S
O202       Ni207   1.933       .  S
C204        O205   1.279       .  A
C204        C888   1.499       .  S
O209       Ni215   1.925       .  S
O209        C230   1.273       .  A
O210       Ni233   1.926       .  S
O210        C219   1.275       .  A
O211       Ni215   1.872       .  S
O211       Ni233   1.883       .  S
O211       Ni227   1.886       .  S
O211        H234   0.966       .  S
C212        O229   1.268       .  A
C212        O221   1.269       .  A
C212        C669   1.471       .  S
O213       Ni232   1.924       .  S
O213        C219   1.273       .  A
O214       Ni232   1.908       .  S
O214        C216   1.278       .  A
Ni215       O218   1.908       .  S
Ni215       O220   1.897       .  S
C216        O226   1.291       .  A
C216        C597   1.500       .  S
O217       Ni233   1.939       .  S
O217        C223   1.284       .  A
O218        C223   1.280       .  A
C219        C585   1.488       .  S
O220        C222   1.267       .  A
O221       Ni232   1.929       .  S
C222        O228   1.277       .  A
C222        C609   1.495       .  S
C223        C624   1.469       .  S
H224        O225   0.966       .  S
O225       Ni233   1.941       .  S
O225       Ni227   1.913       .  S
O225       Ni232   1.907       .  S
O226       Ni227   1.977       .  S
Ni227       O231   1.926       .  S
Ni227       O229   1.905       .  S
O228       Ni233   1.937       .  S
C230        O231   1.280       .  A
C230        C636   1.496   1_554  S
O235       Ni241   1.915       .  S
O235        C256   1.271       .  A
O236       Ni259   1.920       .  S
O236        C245   1.276       .  A
O237       Ni241   1.902       .  S
O237       Ni259   1.913       .  S
O237       Ni253   1.937       .  S
O237        H260   0.963       .  S
C238        O255   1.285       .  A
C238        O247   1.278       .  A
C238        C612   1.469   1_455  S
O239       Ni258   1.923       .  S
O239        C245   1.271       .  A
O240       Ni258   1.903       .  S
O240        C242   1.268       .  A
Ni241       O244   1.924       .  S
Ni241       O246   1.901       .  S
C242        O252   1.274       .  A
C242        C573   1.495       .  S
O243       Ni259   1.907       .  S
O243        C249   1.267       .  A
O244        C249   1.270       .  A
C245        C549   1.489       .  S
O246        C248   1.275       .  A
O247       Ni258   1.910       .  S
C248        O254   1.288       .  A
C248        C564   1.486       .  S
C249        C537   1.489       .  S
H250        O251   0.965       .  S
O251       Ni259   1.889       .  S
O251       Ni253   1.891       .  S
O251       Ni258   1.882       .  S
O252       Ni253   1.932       .  S
Ni253       O257   1.937       .  S
Ni253       O255   1.940       .  S
O254       Ni259   1.976       .  S
C256        O257   1.278       .  A
C256        C681   1.495       .  S
O261       Ni267   1.920       .  S
O261        C282   1.272       .  A
O262       Ni285   1.911       .  S
O262        C271   1.272       .  A
O263       Ni267   1.880       .  S
O263       Ni285   1.884       .  S
O263       Ni279   1.890       .  S
O263        H286   0.965       .  S
C264        O281   1.267       .  A
C264        O273   1.267       .  A
C264        C720   1.476       .  S
O265       Ni284   1.912       .  S
O265        C271   1.270       .  A
O266       Ni284   1.908       .  S
O266        C268   1.279       .  A
Ni267       O270   1.912       .  S
Ni267       O272   1.907       .  S
C268        O278   1.289       .  A
C268        C600   1.499       .  S
O269       Ni285   1.936       .  S
O269        C275   1.282       .  A
O270        C275   1.278       .  A
C271        C513   1.474       .  S
O272        C274   1.268       .  A
O273       Ni284   1.918       .  S
C274        O280   1.272       .  A
C274        C528   1.497       .  S
C275        C576   1.475       .  S
H276        O277   0.967       .  S
O277       Ni285   1.935       .  S
O277       Ni279   1.903       .  S
O277       Ni284   1.904       .  S
O278       Ni279   1.974       .  S
Ni279       O283   1.923       .  S
Ni279       O281   1.903       .  S
O280       Ni285   1.926       .  S
C282        O283   1.278       .  A
C282        C645   1.494   1_554  S
O287       Ni293   1.920       .  S
O287        C308   1.272       .  A
O288       Ni311   1.922       .  S
O288        C297   1.278   1_565  A
O289       Ni293   1.899       .  S
O289       Ni311   1.908       .  S
O289       Ni305   1.935       .  S
O289        H312   0.966       .  S
C290        O307   1.287       .  A
C290        O299   1.278       .  A
C290        C525   1.476   1_655  S
O291       Ni310   1.918       .  S
O291        C297   1.270       .  A
O292       Ni310   1.902       .  S
O292        C294   1.267       .  A
Ni293       O296   1.916       .  S
Ni293       O298   1.910       .  S
C294        O304   1.271       .  A
C294        C621   1.490       .  S
O295       Ni311   1.909       .  S
O295        C301   1.270       .  A
O296        C301   1.268       .  A
C297        C501   1.485       .  S
O298        C300   1.280       .  A
O299       Ni310   1.906       .  S
C300        O306   1.287       .  A
C300        C561   1.501       .  S
C301        C492   1.487       .  S
H302        O303   0.966       .  S
O303       Ni311   1.890       .  S
O303       Ni305   1.883       .  S
O303       Ni310   1.879   1_565  S
O304       Ni305   1.921   1_545  S
Ni305       O309   1.923       .  S
Ni305       O307   1.949   1_565  S
O306       Ni311   1.969       .  S
C308        O309   1.276       .  A
C308        C732   1.491       .  S
O313       Ni319   1.913       .  S
O313        C334   1.270       .  A
O314       Ni337   1.919       .  S
O314        C323   1.275       .  A
O315       Ni319   1.902       .  S
O315       Ni337   1.909       .  S
O315       Ni331   1.931       .  S
O315        H338   0.966       .  S
C316        O333   1.287       .  A
C316        O325   1.278       .  A
C316        C465   1.475       .  S
O317       Ni336   1.919       .  S
O317        C323   1.271       .  A
O318       Ni336   1.902       .  S
O318        C320   1.265       .  A
Ni319       O322   1.921       .  S
Ni319       O324   1.899       .  S
C320        O330   1.275       .  A
C320        C480   1.489       .  S
O321       Ni337   1.902       .  S
O321        C327   1.268       .  A
O322        C327   1.269       .  A
C323        C789   1.489       .  S
O324        C326   1.274       .  A
O325       Ni336   1.904       .  S
C326        O332   1.286       .  A
C326        C453   1.499       .  S
C327        C921   1.473       .  S
H328        O329   0.965       .  S
O329       Ni337   1.889       .  S
O329       Ni331   1.886       .  S
O329       Ni336   1.879       .  S
O330       Ni331   1.931       .  S
Ni331       O335   1.925       .  S
Ni331       O333   1.947       .  S
O332       Ni337   1.972       .  S
C334        O335   1.276       .  A
C334        C504   1.487       .  S
O339       Ni345   1.916       .  S
O339        C360   1.271       .  A
O340       Ni363   1.924       .  S
O340        C349   1.277       .  A
O341       Ni345   1.905       .  S
O341       Ni363   1.910       .  S
O341       Ni357   1.935       .  S
O341        H364   0.969       .  S
C342        O359   1.287       .  A
C342        O351   1.277       .  A
C342        C441   1.477       .  S
O343       Ni362   1.914       .  S
O343        C349   1.270       .  A
O344       Ni362   1.905       .  S
O344        C346   1.268       .  A
Ni345       O348   1.924       .  S
Ni345       O350   1.903       .  S
C346        O356   1.274       .  A
C346        C429   1.499       .  S
O347       Ni363   1.905       .  S
O347        C353   1.270       .  A
O348        C353   1.270       .  A
C349        C828   1.478       .  S
O350        C352   1.274       .  A
O351       Ni362   1.906       .  S
C352        O358   1.284       .  A
C352        C456   1.481       .  S
C353        C861   1.474       .  S
H354        O355   0.965       .  S
O355       Ni363   1.898       .  S
O355       Ni357   1.886       .  S
O355       Ni362   1.877       .  S
O356       Ni357   1.933       .  S
Ni357       O361   1.922       .  S
Ni357       O359   1.949       .  S
O358       Ni363   1.968       .  S
C360        O361   1.275       .  A
C360        C552   1.485       .  S
O365       Ni371   1.923       .  S
O365        C386   1.272       .  A
O366       Ni389   1.921       .  S
O366        C375   1.275       .  A
O367       Ni371   1.875       .  S
O367       Ni389   1.885       .  S
O367       Ni383   1.896       .  S
O367        H390   0.963       .  S
C368        O385   1.272       .  A
C368        O377   1.267       .  A
C368        C489   1.487       .  S
O369       Ni388   1.910       .  S
O369        C375   1.269       .  A
O370       Ni388   1.903       .  S
O370        C372   1.276       .  A
Ni371       O374   1.912       .  S
Ni371       O376   1.904       .  S
C372        O382   1.286       .  A
C372        C420   1.476       .  S
O373       Ni389   1.947       .  S
O373        C379   1.286       .  A
O374        C379   1.278       .  A
C375        C876   1.483       .  S
O376        C378   1.268       .  A
O377       Ni388   1.910       .  S
C378        O384   1.273       .  A
C378        C468   1.493       .  S
C379        C432   1.477       .  S
H380        O381   0.972       .  S
O381       Ni389   1.936       .  S
O381       Ni383   1.912       .  S
O381       Ni388   1.901       .  S
O382       Ni383   1.968       .  S
Ni383       O387   1.930       .  S
Ni383       O385   1.914       .  S
O384       Ni389   1.928       .  S
C386        O387   1.281       .  A
C386        C588   1.502       .  S
O391       Ni397   1.914       .  S
O391        C412   1.271       .  A
O392       Ni415   1.929       .  S
O392        C401   1.278       .  A
O393       Ni397   1.874   1_565  S
O393       Ni415   1.879       .  S
O393       Ni409   1.887       .  S
O393        H416   0.966       .  S
C394        O411   1.269       .  A
C394        O403   1.270       .  A
C394        C540   1.489       .  S
O395       Ni414   1.911       .  S
O395        C401   1.271       .  A
O396       Ni414   1.901       .  S
O396        C398   1.275       .  A
Ni397       O400   1.900       .  S
Ni397       O402   1.902       .  S
C398        O408   1.285       .  A
C398        C417   1.494       .  S
O399       Ni415   1.953   1_545  S
O399        C405   1.291       .  A
O400        C405   1.279       .  A
C401        C948   1.488       .  S
O402        C404   1.266       .  A
O403       Ni414   1.928       .  S
C404        O410   1.274       .  A
C404        C444   1.499       .  S
C405        C477   1.480       .  S
H406        O407   0.965       .  S
O407       Ni415   1.939       .  S
O407       Ni409   1.904       .  S
O407       Ni414   1.903       .  S
O408       Ni409   1.969       .  S
Ni409       O413   1.913       .  S
Ni409       O411   1.905       .  S
O410       Ni415   1.936   1_545  S
C412        O413   1.275   1_545  A
C412        C516   1.486       .  S
C417        C418   1.409       .  A
C417        C422   1.419       .  A
C418        C419   1.396       .  A
C418        H423   1.084       .  S
C419        C420   1.408       .  A
C419        C426   1.446       .  S
C420        C421   1.404       .  A
C421        C422   1.407       .  A
C421        H424   1.085       .  S
C422        C425   1.443       .  S
C425        N427   1.157       .  T
C426        N428   1.157       .  T
C429        C430   1.414       .  A
C429        C434   1.418       .  A
C430        C431   1.402       .  A
C430        H435   1.084       .  S
C431        C432   1.405       .  A
C431        C438   1.444       .  S
C432        C433   1.404       .  A
C433        C434   1.402       .  A
C433        H436   1.085       .  S
C434        C437   1.445       .  S
C437        N439   1.158       .  T
C438        N440   1.157       .  T
C441        C442   1.404       .  A
C441        C446   1.405       .  A
C442        C443   1.400       .  A
C442        H447   1.085       .  S
C443        C444   1.417       .  A
C443        C450   1.444       .  S
C444        C445   1.416       .  A
C445        C446   1.404       .  A
C445        H448   1.084       .  S
C446        C449   1.445       .  S
C449        N451   1.157       .  T
C450        N452   1.157       .  T
C453        C454   1.410   1_655  A
C453        C458   1.419       .  A
C454        C455   1.397       .  A
C454        H459   1.084       .  S
C455        C456   1.408       .  A
C455        C462   1.446       .  S
C456        C457   1.404       .  A
C457        C458   1.409   1_455  A
C457        H460   1.085       .  S
C458        C461   1.442       .  S
C461        N463   1.157       .  T
C462        N464   1.157       .  T
C465        C466   1.404       .  A
C465        C470   1.405       .  A
C466        C467   1.398       .  A
C466        H471   1.086       .  S
C467        C468   1.416       .  A
C467        C474   1.444       .  S
C468        C469   1.414       .  A
C469        C470   1.402       .  A
C469        H472   1.084       .  S
C470        C473   1.444       .  S
C473        N475   1.157       .  T
C474        N476   1.157       .  T
C477        C478   1.400       .  A
C477        C482   1.417       .  A
C478        C479   1.404       .  A
C478        H483   1.085       .  S
C479        C480   1.422       .  A
C479        C486   1.444       .  S
C480        C481   1.402       .  A
C481        C482   1.396       .  A
C481        H484   1.085       .  S
C482        C485   1.446       .  S
C485        N487   1.157       .  T
C486        N488   1.157       .  T
C489        C490   1.414       .  A
C489        C494   1.409       .  A
C490        C491   1.397       .  A
C490        H495   1.084       .  S
C491        C492   1.410       .  A
C491        C498   1.445       .  S
C492        C493   1.413       .  A
C493        C494   1.397       .  A
C493        H496   1.084       .  S
C494        C497   1.444       .  S
C497        N499   1.157       .  T
C498        N500   1.158       .  T
C501        C502   1.397       .  A
C501        C506   1.421       .  A
C502        C503   1.399       .  A
C502        H507   1.085   1_545  S
C503        C504   1.422       .  A
C503        C510   1.445   1_545  S
C504        C505   1.401       .  A
C505        C506   1.404       .  A
C505        H508   1.085       .  S
C506        C509   1.445       .  S
C509        N511   1.158       .  T
C510        N512   1.157       .  T
C513        C514   1.406       .  A
C513        C518   1.405       .  A
C514        C515   1.399   1_545  A
C514        H519   1.085   1_545  S
C515        C516   1.412   1_565  A
C515        C522   1.444       .  S
C516        C517   1.413       .  A
C517        C518   1.399       .  A
C517        H520   1.084       .  S
C518        C521   1.445       .  S
C521        N523   1.157       .  T
C522        N524   1.157       .  T
C525        C526   1.403       .  A
C525        C530   1.406       .  A
C526        C527   1.399       .  A
C526        H531   1.086       .  S
C527        C528   1.418       .  A
C527        C534   1.445       .  S
C528        C529   1.414       .  A
C529        C530   1.404       .  A
C529        H532   1.084       .  S
C530        C533   1.444   1_455  S
C533        N535   1.157       .  T
C534        N536   1.157       .  T
C537        C538   1.410       .  A
C537        C542   1.413       .  A
C538        C539   1.396       .  A
C538        H543   1.084       .  S
C539        C540   1.411       .  A
C539        C546   1.445       .  S
C540        C541   1.412       .  A
C541        C542   1.401       .  A
C541        H544   1.084       .  S
C542        C545   1.445       .  S
C545        N547   1.158       .  T
C546        N548   1.157       .  T
C549        C550   1.400       .  A
C549        C554   1.422       .  A
C550        C551   1.401       .  A
C550        H555   1.085       .  S
C551        C552   1.419       .  A
C551        C558   1.446       .  S
C552        C553   1.399       .  A
C553        C554   1.405       .  A
C553        H556   1.085       .  S
C554        C557   1.445       .  S
C557        N559   1.157       .  T
C558        N560   1.157       .  T
C561        C562   1.409       .  A
C561        C566   1.421       .  A
C562        C563   1.398   1_655  A
C562        H567   1.084       .  S
C563        C564   1.412       .  A
C563        C570   1.445       .  S
C564        C565   1.405       .  A
C565        C566   1.409   1_455  A
C565        H568   1.085       .  S
C566        C569   1.444       .  S
C569        N571   1.158       .  T
C570        N572   1.157       .  T
C573        C574   1.415       .  A
C573        C578   1.416       .  A
C574        C575   1.402       .  A
C574        H579   1.084       .  S
C575        C576   1.406       .  A
C575        C582   1.445       .  S
C576        C577   1.403       .  A
C577        C578   1.399       .  A
C577        H580   1.085       .  S
C578        C581   1.444       .  S
C581        N583   1.157       .  T
C582        N584   1.157       .  T
C585        C586   1.399       .  A
C585        C590   1.415       .  A
C586        C587   1.406       .  A
C586        H591   1.085       .  S
C587        C588   1.428       .  A
C587        C594   1.445       .  S
C588        C589   1.404       .  A
C589        C590   1.405       .  A
C589        H592   1.084       .  S
C590        C593   1.444       .  S
C593        N595   1.157       .  T
C594        N596   1.158       .  T
C597        C598   1.408       .  A
C597        C602   1.420       .  A
C598        C599   1.408       .  A
C598        H603   1.084       .  S
C599        C600   1.417       .  A
C599        C606   1.444       .  S
C600        C601   1.407       .  A
C601        C602   1.402       .  A
C601        H604   1.085       .  S
C602        C605   1.446       .  S
C605        N607   1.158       .  T
C606        N608   1.157       .  T
C609        C610   1.416       .  A
C609        C614   1.416       .  A
C610        C611   1.401       .  A
C610        H615   1.084       .  S
C611        C612   1.403       .  A
C611        C618   1.445   1_655  S
C612        C613   1.402       .  A
C613        C614   1.401       .  A
C613        H616   1.085       .  S
C614        C617   1.444       .  S
C617        N619   1.157       .  T
C618        N620   1.158       .  T
C621        C622   1.414       .  A
C621        C626   1.417       .  A
C622        C623   1.402       .  A
C622        H627   1.084       .  S
C623        C624   1.406       .  A
C623        C630   1.444       .  S
C624        C625   1.400       .  A
C625        C626   1.394       .  A
C625        H628   1.086       .  S
C626        C629   1.444       .  S
C629        N631   1.157       .  T
C630        N632   1.157       .  T
C633        C634   1.401       .  A
C633        C638   1.420       .  A
C634        C635   1.408       .  A
C634        H639   1.085       .  S
C635        C636   1.424       .  A
C635        C642   1.445       .  S
C636        C637   1.400       .  A
C637        C638   1.404       .  A
C637        H640   1.084       .  S
C638        C641   1.445       .  S
C641        N643   1.157       .  T
C642        N644   1.158   1_556  T
C645        C646   1.402       .  A
C645        C650   1.425       .  A
C646        C647   1.403       .  A
C646        H651   1.085       .  S
C647        C648   1.418       .  A
C647        C654   1.445       .  S
C648        C649   1.399       .  A
C649        C650   1.404       .  A
C649        H652   1.085       .  S
C650        C653   1.446       .  S
C653        N655   1.158   1_556  T
C654        N656   1.157       .  T
C657        C658   1.405       .  A
C657        C662   1.412       .  A
C658        C659   1.408   1_455  A
C658        H663   1.085       .  S
C659        C660   1.419       .  A
C659        C666   1.439       .  S
C660        C661   1.411       .  A
C661        C662   1.400   1_655  A
C661        H664   1.084       .  S
C662        C665   1.446       .  S
C665        N667   1.157       .  T
C666        N668   1.156       .  T
C669        C670   1.402       .  A
C669        C674   1.411   1_554  A
C670        C671   1.399       .  A
C670        H675   1.085       .  S
C671        C672   1.410   1_554  A
C671        C678   1.443       .  S
C672        C673   1.402       .  A
C673        C674   1.400       .  A
C673        H676   1.085       .  S
C674        C677   1.444       .  S
C677        N679   1.157       .  T
C678        N680   1.157       .  T
C681        C682   1.402       .  A
C681        C686   1.420       .  A
C682        C683   1.410       .  A
C682        H687   1.085       .  S
C683        C684   1.425       .  A
C683        C690   1.445   1_554  S
C684        C685   1.400       .  A
C685        C686   1.402       .  A
C685        H688   1.083       .  S
C686        C689   1.444       .  S
C689        N691   1.157       .  T
C690        N692   1.158       .  T
C693        C694   1.402       .  A
C693        C698   1.403       .  A
C694        C695   1.396       .  A
C694        H699   1.086       .  S
C695        C696   1.417       .  A
C695        C702   1.445       .  S
C696        C697   1.414       .  A
C697        C698   1.399       .  A
C697        H700   1.084       .  S
C698        C701   1.444   1_455  S
C701        N703   1.157       .  T
C702        N704   1.157       .  T
C705        C706   1.400       .  A
C705        C710   1.412       .  A
C706        C707   1.405       .  A
C706        H711   1.085       .  S
C707        C708   1.424       .  A
C707        C714   1.445       .  S
C708        C709   1.404       .  A
C709        C710   1.396       .  A
C709        H712   1.084       .  S
C710        C713   1.445       .  S
C713        N715   1.157       .  T
C714        N716   1.158       .  T
C717        C718   1.402       .  A
C717        C722   1.416       .  A
C718        C719   1.394   1_556  A
C718        H723   1.085   1_546  S
C719        C720   1.416       .  A
C719        C726   1.445   1_545  S
C720        C721   1.403   1_554  A
C721        C722   1.396       .  A
C721        H724   1.085       .  S
C722        C725   1.445       .  S
C725        N727   1.157       .  T
C726        N728   1.157       .  T
C729        C730   1.411       .  A
C729        C734   1.411       .  A
C730        C731   1.403       .  A
C730        H735   1.085       .  S
C731        C732   1.408       .  A
C731        C738   1.443       .  S
C732        C733   1.412       .  A
C733        C734   1.406       .  A
C733        H736   1.085       .  S
C734        C737   1.444       .  S
C737        N739   1.157       .  T
C738        N740   1.157   1_565  T
C741        C742   1.410       .  A
C741        C746   1.419       .  A
C742        C743   1.401       .  A
C742        H747   1.084       .  S
C743        C744   1.410       .  A
C743        C750   1.445       .  S
C744        C745   1.402       .  A
C745        C746   1.407       .  A
C745        H748   1.085       .  S
C746        C749   1.443       .  S
C749        N751   1.157       .  T
C750        N752   1.157       .  T
C753        C754   1.415       .  A
C753        C758   1.417   1_565  A
C754        C755   1.405       .  A
C754        H759   1.084       .  S
C755        C756   1.407   1_565  A
C755        C762   1.443   1_655  S
C756        C757   1.405       .  A
C757        C758   1.399       .  A
C757        H760   1.085       .  S
C758        C761   1.444       .  S
C761        N763   1.157       .  T
C762        N764   1.157       .  T
C765        C766   1.400       .  A
C765        C770   1.417       .  A
C766        C767   1.404       .  A
C766        H771   1.085       .  S
C767        C768   1.421       .  A
C767        C774   1.444       .  S
C768        C769   1.403       .  A
C769        C770   1.398       .  A
C769        H772   1.085       .  S
C770        C773   1.446       .  S
C773        N775   1.158       .  T
C774        N776   1.157       .  T
C777        C778   1.400       .  A
C777        C782   1.418       .  A
C778        C779   1.395       .  A
C778        H783   1.085       .  S
C779        C780   1.418       .  A
C779        C786   1.445       .  S
C780        C781   1.403       .  A
C781        C782   1.399       .  A
C781        H784   1.084       .  S
C782        C785   1.445       .  S
C785        N787   1.158       .  T
C786        N788   1.157       .  T
C789        C790   1.415       .  A
C789        C794   1.411       .  A
C790        C791   1.402       .  A
C790        H795   1.084       .  S
C791        C792   1.404       .  A
C791        C798   1.444       .  S
C792        C793   1.406       .  A
C793        C794   1.398       .  A
C793        H796   1.085       .  S
C794        C797   1.443       .  S
C797        N799   1.157       .  T
C798        N800   1.157       .  T
C801        C802   1.412   1_545  A
C801        C806   1.409       .  A
C802        C803   1.405       .  A
C802        H807   1.085       .  S
C803        C804   1.409       .  A
C803        C810   1.443       .  S
C804        C805   1.412   1_565  A
C805        C806   1.402       .  A
C805        H808   1.085       .  S
C806        C809   1.444       .  S
C809        N811   1.157       .  T
C810        N812   1.157       .  T
C813        C814   1.412       .  A
C813        C818   1.410       .  A
C814        C815   1.400       .  A
C814        H819   1.085       .  S
C815        C816   1.411       .  A
C815        C822   1.445       .  S
C816        C817   1.411       .  A
C817        C818   1.399       .  A
C817        H820   1.085       .  S
C818        C821   1.444       .  S
C821        N823   1.157       .  T
C822        N824   1.158       .  T
C825        C826   1.404       .  A
C825        C830   1.410       .  A
C826        C827   1.407       .  A
C826        H831   1.085       .  S
C827        C828   1.413       .  A
C827        C834   1.442       .  S
C828        C829   1.404       .  A
C829        C830   1.397       .  A
C829        H832   1.085       .  S
C830        C833   1.446       .  S
C833        N835   1.157       .  T
C834        N836   1.157       .  T
C837        C838   1.410       .  A
C837        C842   1.407       .  A
C838        C839   1.405       .  A
C838        H843   1.085       .  S
C839        C840   1.411       .  A
C839        C846   1.444       .  S
C840        C841   1.413       .  A
C841        C842   1.403       .  A
C841        H844   1.085       .  S
C842        C845   1.444       .  S
C845        N847   1.157       .  T
C846        N848   1.157       .  T
C849        C850   1.398       .  A
C849        C854   1.410       .  A
C850        C851   1.398       .  A
C850        H855   1.086       .  S
C851        C852   1.420       .  A
C851        C858   1.446       .  S
C852        C853   1.404       .  A
C853        C854   1.403       .  A
C853        H856   1.085       .  S
C854        C857   1.443       .  S
C857        N859   1.157       .  T
C858        N860   1.158       .  T
C861        C862   1.401       .  A
C861        C866   1.414   1_455  A
C862        C863   1.397       .  A
C862        H867   1.085       .  S
C863        C864   1.414   1_455  A
C863        C870   1.444       .  S
C864        C865   1.403       .  A
C865        C866   1.400       .  A
C865        H868   1.085       .  S
C866        C869   1.445       .  S
C869        N871   1.157       .  T
C870        N872   1.157       .  T
C873        C874   1.400       .  A
C873        C878   1.421       .  A
C874        C875   1.401       .  A
C874        H879   1.085       .  S
C875        C876   1.420       .  A
C875        C882   1.445       .  S
C876        C877   1.399       .  A
C877        C878   1.401       .  A
C877        H880   1.085       .  S
C878        C881   1.445       .  S
C881        N883   1.157       .  T
C882        N884   1.157       .  T
C885        C886   1.407       .  A
C885        C890   1.407       .  A
C886        C887   1.401       .  A
C886        H891   1.085       .  S
C887        C888   1.412       .  A
C887        C894   1.440       .  S
C888        C889   1.416       .  A
C889        C890   1.407       .  A
C889        H892   1.084       .  S
C890        C893   1.444       .  S
C893        N895   1.157       .  T
C894        N896   1.156       .  T
C897        C898   1.408       .  A
C897        C902   1.424       .  A
C898        C899   1.400       .  A
C898        H903   1.085       .  S
C899        C900   1.414       .  A
C899        C906   1.446       .  S
C900        C901   1.398       .  A
C901        C902   1.403       .  A
C901        H904   1.085       .  S
C902        C905   1.444       .  S
C905        N907   1.157       .  T
C906        N908   1.158       .  T
C909        C910   1.402       .  A
C909        C914   1.404       .  A
C910        C911   1.399       .  A
C910        H915   1.086       .  S
C911        C912   1.419       .  A
C911        C918   1.444       .  S
C912        C913   1.415       .  A
C913        C914   1.402       .  A
C913        H916   1.084       .  S
C914        C917   1.445       .  S
C917        N919   1.157       .  T
C918        N920   1.157   1_565  T
C921        C922   1.401       .  A
C921        C926   1.414   1_655  A
C922        C923   1.396       .  A
C922        H927   1.084       .  S
C923        C924   1.415   1_655  A
C923        C930   1.445       .  S
C924        C925   1.402       .  A
C925        C926   1.398       .  A
C925        H928   1.085   1_545  S
C926        C929   1.445   1_545  S
C929        N931   1.157       .  T
C930        N932   1.157       .  T
C933        C934   1.412   1_565  A
C933        C938   1.407       .  A
C934        C935   1.402       .  A
C934        H939   1.085       .  S
C935        C936   1.409       .  A
C935        C942   1.444       .  S
C936        C937   1.414   1_545  A
C937        C938   1.405       .  A
C937        H940   1.085       .  S
C938        C941   1.444       .  S
C941        N943   1.157       .  T
C942        N944   1.157       .  T
C945        C946   1.398       .  A
C945        C950   1.421       .  A
C946        C947   1.400       .  A
C946        H951   1.085       .  S
C947        C948   1.422       .  A
C947        C954   1.446       .  S
C948        C949   1.400       .  A
C949        C950   1.406       .  A
C949        H952   1.085       .  S
C950        C953   1.445       .  S
C953        N955   1.157   1_565  T
C954        N956   1.157       .  T
C957        C958   1.410       .  A
C957        C962   1.420       .  A
C958        C959   1.397   1_455  A
C958        H963   1.084   1_455  S
C959        C960   1.408       .  A
C959        C966   1.446       .  S
C960        C961   1.404       .  A
C961        C962   1.408   1_655  A
C961        H964   1.085       .  S
C962        C965   1.444       .  S
C965        N967   1.158       .  T
C966        N968   1.157       .  T
C969        C970   1.413       .  A
C969        C974   1.418   1_565  A
C970        C971   1.401       .  A
C970        H975   1.084       .  S
C971        C972   1.406   1_565  A
C971        C978   1.444       .  S
C972        C973   1.403       .  A
C973        C974   1.400       .  A
C973        H976   1.085       .  S
C974        C977   1.445       .  S
C977        N979   1.157       .  T
C978        N980   1.157       .  T
C981        C982   1.406       .  A
C981        C986   1.422       .  A
C982        C983   1.399       .  A
C982        H987   1.085       .  S
C983        C984   1.415       .  A
C983        C990   1.446       .  S
C984        C985   1.401       .  A
C985        C986   1.406       .  A
C985        H988   1.085       .  S
C986        C989   1.444       .  S
C989        N991   1.157       .  T
C990        N992   1.157       .  T
