geometry optimzed in LAMMPS
_audit_creation_date              2020-12-01 
_audit_creation_method            'lammps2cif' 
_symmetry_space_group_name_H-M    'P1' 
_symmetry_Int_Tables_number       1 
_symmetry_cell_setting            triclinic 
loop_ 
_symmetry_equiv_pos_as_xyz 
  x,y,z 
_cell_length_a                    70.78273778 
_cell_length_b                    70.60740455912119 
_cell_length_c                    29.63943029734172 
_cell_angle_alpha                 90.16401653140824 
_cell_angle_beta                  89.8764218408924 
_cell_angle_gamma                 120.09358579470192 
loop_ 
_atom_site_label 
_atom_site_type_symbol 
_atom_site_fract_x 
_atom_site_fract_y 
_atom_site_fract_z 
_atom_site_charge 
O1          O  0.31486844  0.87516277  0.42113442    -0.85100
O2          O  0.29284687  0.84964864  0.49440689    -0.82100
C3          C  0.29241350  0.83172110  0.48671917     0.98400
O4          O  0.30968213  0.83070152  0.48893257    -0.82200
O5          O  0.35390395  0.84388139  0.48907178    -0.84800
C6          C  0.36002716  0.84798201  0.44834209     1.02900
O7          O  0.35847241  0.86258679  0.42723017    -0.77600
O8          O  0.34996859  0.89590848  0.40816331    -0.77800
C9          C  0.33050913  0.88547161  0.39398789     1.02800
O10         O  0.33831845  0.91335845  0.47909443    -0.85100
O11         O  0.32002217  0.88700336  0.55315013    -0.82200
C12         C  0.31612972  0.87246782  0.58214891     0.98400
O13         O  0.31503180  0.85472679  0.57043294    -0.82200
O14         O  0.35957553  0.87140592  0.56474429    -0.84800
C15         C  0.37868010  0.88108615  0.54887345     1.02900
O16         O  0.38194469  0.88536620  0.50716824    -0.77600
O17         O  0.37010958  0.91619619  0.49235371    -0.77800
C18         C  0.35829150  0.92478789  0.48994732     1.02800
Cr19       Cr  0.31789967  0.88077316  0.48725680     1.93700
Cr20       Cr  0.33472216  0.85173520  0.52559836     1.93200
Cr21       Cr  0.36323666  0.88890675  0.46085053     1.39100
O22         O  0.33859569  0.87379576  0.49101298    -1.22900
O23         O  0.31418595  0.87978739  0.92084916    -0.85100
O24         O  0.29350900  0.85414594  0.99434875    -0.82100
C25         C  0.29321899  0.83631480  0.98575898     0.98400
O26         O  0.31064224  0.83552840  0.98718223    -0.82200
O27         O  0.35493193  0.84888048  0.98640217    -0.84800
C28         C  0.36072539  0.85259149  0.94552968     1.02900
O29         O  0.35853940  0.86666411  0.92382189    -0.77600
O30         O  0.34911194  0.89939166  0.90444308    -0.77800
C31         C  0.32929454  0.88938006  0.89230488     1.02800
O32         O  0.33869996  0.91820925  0.97804504    -0.85100
O33         O  0.32188325  0.89199223  0.05280140    -0.82200
C34         C  0.31843897  0.87743519  0.08141127     0.98400
O35         O  0.31647928  0.85951030  0.06856195    -0.82200
O36         O  0.36114131  0.87675338  0.06102010    -0.84800
C37         C  0.38014081  0.88668875  0.04448295     1.02900
O38         O  0.38299151  0.89068309  0.00253324    -0.77600
O39         O  0.37079538  0.92102106  0.98627760    -0.77800
C40         C  0.35906300  0.92973481  0.98534144     1.02800
Cr41       Cr  0.31847768  0.88552392  0.98678527     1.93700
Cr42       Cr  0.33591875  0.85670712  0.02306961     1.93200
Cr43       Cr  0.36344122  0.89331189  0.95650505     1.39100
O44         O  0.33926891  0.87854275  0.98839971    -1.22900
O45         O  0.44264805  0.13266912  0.08603862    -0.85100
O46         O  0.44793516  0.15843275  0.01237636    -0.82100
C47         C  0.46572182  0.17594540  0.02099515     0.98400
O48         O  0.48368709  0.17629563  0.01921187    -0.82200
O49         O  0.51356973  0.16179050  0.01820133    -0.84800
C50         C  0.51559682  0.15783674  0.05890609     1.02900
O51         O  0.49921759  0.14394839  0.08080990    -0.77600
O52         O  0.45667907  0.11177109  0.10077873    -0.77800
C53         C  0.44744384  0.12220938  0.11378555     1.02800
O54         O  0.42728427  0.09418566  0.02924509    -0.85100
O55         O  0.43691874  0.12047896  0.95418274    -0.82200
C56         C  0.44805766  0.13489270  0.92525491     0.98400
O57         O  0.46451443  0.15259978  0.93755648    -0.82200
O58         O  0.49102275  0.13440984  0.94360936    -0.84800
C59         C  0.49985065  0.12429077  0.95998066     1.02900
O60         O  0.49850316  0.12000385  0.00173916    -0.77600
O61         O  0.45577268  0.09030000  0.01791262    -0.77800
C62         C  0.43541871  0.08216581  0.02036932     1.02800
Cr63       Cr  0.44056939  0.12691353  0.02009553     1.93700
Cr64       Cr  0.48675785  0.15476303  0.98236472     1.93200
Cr65       Cr  0.47681839  0.11765222  0.04819291     1.39100
O66         O  0.46803038  0.13309292  0.01723650    -1.22900
O67         O  0.44020021  0.12778424  0.58539788    -0.85100
O68         O  0.44390171  0.15233464  0.51114253    -0.82100
C69         C  0.46132018  0.17035681  0.51916382     0.98400
O70         O  0.47965341  0.17143753  0.51758564    -0.82200
O71         O  0.51086333  0.15834629  0.51785966    -0.84800
C72         C  0.51281119  0.15487567  0.55890853     1.02900
O73         O  0.49655817  0.14081721  0.58064645    -0.77600
O74         O  0.45507816  0.10782412  0.60156289    -0.77800
C75         C  0.44593996  0.11844886  0.61397657     1.02800
O76         O  0.42579385  0.08866583  0.53024743    -0.85100
O77         O  0.43408744  0.11427093  0.45405797    -0.82200
C78         C  0.44472731  0.12889377  0.42511948     0.98400
O79         O  0.46107057  0.14677143  0.43705068    -0.82200
O80         O  0.48887682  0.13009937  0.44380748    -0.84800
C81         C  0.49850707  0.12078363  0.46032959     1.02900
O82         O  0.49741762  0.11677359  0.50226191    -0.77600
O83         O  0.45501864  0.08590230  0.52000124    -0.77800
C84         C  0.43461198  0.07707549  0.52327080     1.02800
Cr85       Cr  0.43783848  0.12120444  0.51984082     1.93700
Cr86       Cr  0.48373667  0.15013257  0.48179619     1.93200
Cr87       Cr  0.47526137  0.11389446  0.54880791     1.39100
O88         O  0.46555038  0.12831160  0.51693749    -1.22900
O89         O  0.67749113  0.13189187  0.17048558    -0.85100
O90         O  0.69827218  0.15752783  0.24487083    -0.82100
C91         C  0.69933673  0.17553397  0.23495474     0.98400
O92         O  0.68230022  0.17696735  0.23398910    -0.82200
O93         O  0.63846825  0.16464070  0.22922563    -0.84800
C94         C  0.63271214  0.15995478  0.18842546     1.02900
O95         O  0.63445721  0.14506644  0.16879762    -0.77600
O96         O  0.64264119  0.11098388  0.15566704    -0.77800
C97         C  0.66227299  0.12152037  0.14251361     1.02800
O98         O  0.65205792  0.09396243  0.22889023    -0.85100
O99         O  0.66934436  0.12097819  0.30277461    -0.82200
C100        C  0.67302022  0.13592804  0.33075728     0.98400
O101        O  0.67455802  0.15365500  0.31750818    -0.82200
O102        O  0.63040318  0.13787981  0.30686806    -0.84800
C103        C  0.61162036  0.12824527  0.28943106     1.02900
O104        O  0.60915725  0.12374708  0.24775448    -0.77600
O105        O  0.62059058  0.09230012  0.23916376    -0.77800
C106        C  0.63191320  0.08312305  0.23892441     1.02800
Cr107      Cr  0.67294605  0.12661138  0.23671591     1.93700
Cr108      Cr  0.65631313  0.15676128  0.26941469     1.93200
Cr109      Cr  0.62856082  0.11910610  0.20502904     1.39100
O110        O  0.65263045  0.13418082  0.23689778    -1.22900
O111        O  0.67487494  0.12848977  0.67015437    -0.85100
O112        O  0.69417572  0.15425940  0.74421093    -0.82100
C113        C  0.69434682  0.17189930  0.73489287     0.98400
O114        O  0.67685807  0.17251168  0.73449496    -0.82200
O115        O  0.63284089  0.15844302  0.72828500    -0.84800
C116        C  0.62825153  0.15451369  0.68691488     1.02900
O117        O  0.63086147  0.14021388  0.66696320    -0.77600
O118        O  0.64041948  0.10712072  0.65271477    -0.77800
C119        C  0.66022037  0.11820194  0.64110957     1.02800
O120        O  0.65008368  0.09013543  0.72749690    -0.85100
O121        O  0.66614587  0.11708935  0.80233937    -0.82200
C122        C  0.66934762  0.13195320  0.83022402     0.98400
O123        O  0.66969727  0.14909317  0.81693394    -0.82200
O124        O  0.62514631  0.13107063  0.80445569    -0.84800
C125        C  0.60667311  0.12159812  0.78572571     1.02900
O126        O  0.60480864  0.11722431  0.74396703    -0.77600
O127        O  0.61756346  0.08663653  0.73385928    -0.77800
C128        C  0.62968419  0.07833081  0.73432123     1.02800
Cr129      Cr  0.66985673  0.12288269  0.73606432     1.93700
Cr130      Cr  0.65105952  0.15119270  0.76854443     1.93200
Cr131      Cr  0.62523372  0.11393496  0.70181311     1.39100
O132        O  0.64871649  0.12926922  0.73540990    -1.22900
O133        O  0.54891200  0.87970126  0.33784770    -0.85100
O134        O  0.54510950  0.85595428  0.26180099    -0.82100
C135        C  0.52767320  0.83785951  0.26862081     0.98400
O136        O  0.50934497  0.83678579  0.26732898    -0.82200
O137        O  0.47831571  0.84991722  0.27150833    -0.84800
C138        C  0.47630484  0.85286025  0.31295016     1.02900
O139        O  0.49243237  0.86700050  0.33501719    -0.77600
O140        O  0.53436864  0.89975063  0.35618329    -0.77800
C141        C  0.54356657  0.88904161  0.36736951     1.02800
O142        O  0.56347315  0.91923911  0.28436055    -0.85100
O143        O  0.55534106  0.89438736  0.20718940    -0.82200
C144        C  0.54484054  0.88011155  0.17747131     0.98400
O145        O  0.52770610  0.86258117  0.18795562    -0.82200
O146        O  0.49977974  0.87924048  0.19854787    -0.84800
C147        C  0.49014574  0.88828863  0.21664827     1.02900
O148        O  0.49154681  0.89186690  0.25882376    -0.77600
O149        O  0.53447506  0.92261987  0.27622327    -0.77800
C150        C  0.55491297  0.93107141  0.27791119     1.02800
Cr151      Cr  0.55123883  0.88687622  0.27259092     1.93700
Cr152      Cr  0.50523091  0.85871070  0.23415363     1.93200
Cr153      Cr  0.51399820  0.89424200  0.30401882     1.39100
O154        O  0.52354454  0.88003411  0.27031050    -1.22900
O155        O  0.54969682  0.87656599  0.83857941    -0.85100
O156        O  0.54418471  0.85095899  0.76382739    -0.82100
C157        C  0.52707879  0.83305008  0.77389573     0.98400
O158        O  0.50868985  0.83185698  0.77422690    -0.82200
O159        O  0.47763125  0.84505050  0.77817548    -0.84800
C160        C  0.47614321  0.84939709  0.81901384     1.02900
O161        O  0.49277368  0.86359802  0.83975957    -0.77600
O162        O  0.53529728  0.89692559  0.85560415    -0.77800
C163        C  0.54508258  0.88685997  0.86729138     1.02800
O164        O  0.56275564  0.91483970  0.78186316    -0.85100
O165        O  0.55285790  0.88827957  0.70683115    -0.82200
C166        C  0.54173625  0.87355441  0.67835186     0.98400
O167        O  0.52534481  0.85584449  0.69113196    -0.82200
O168        O  0.49757532  0.87245015  0.70226711    -0.84800
C169        C  0.48836549  0.88200195  0.72000548     1.02900
O170        O  0.49035185  0.88640293  0.76178114    -0.77600
O171        O  0.53326360  0.91724529  0.77357602    -0.77800
C172        C  0.55373897  0.92617310  0.77425336     1.02800
Cr173      Cr  0.55043908  0.88213973  0.77271195     1.93700
Cr174      Cr  0.50375636  0.85281247  0.73906913     1.93200
Cr175      Cr  0.51369694  0.88993047  0.80538030     1.39100
O176        O  0.52264784  0.87497774  0.77262987    -1.22900
O177        O  0.66774976  0.56456601  0.41862636    -0.85100
O178        O  0.69115205  0.55020663  0.37028525    -0.82100
C179        C  0.69402810  0.53619098  0.34990721     0.98400
O180        O  0.68009237  0.52298787  0.32206379    -0.82200
O181        O  0.64471808  0.49197401  0.37029353    -0.84800
C182        C  0.62718927  0.48343638  0.39249237     1.02900
O183        O  0.61652517  0.49325074  0.39682054    -0.77600
O184        O  0.64398391  0.53141163  0.44192303    -0.77800
C185        C  0.65976269  0.55032561  0.44972430     1.02800
O186        O  0.65080713  0.57090395  0.33361629    -0.85100
O187        O  0.67707732  0.55943649  0.28561508    -0.82200
C188        C  0.66460161  0.54686224  0.25499169     0.98400
O189        O  0.64996990  0.52764132  0.26391497    -0.82200
O190        O  0.61564624  0.49518305  0.30725009    -0.84800
C191        C  0.60182654  0.50149754  0.31034864     1.02900
O192        O  0.60485727  0.51688113  0.33666572    -0.77600
O193        O  0.62799057  0.55429785  0.38898001    -0.77800
C194        C  0.63547286  0.56877938  0.35865617     1.02800
Cr195      Cr  0.66997176  0.55916103  0.35201947     1.93700
Cr196      Cr  0.64784102  0.51117702  0.31854450     1.93200
Cr197      Cr  0.62514450  0.52463932  0.38859262     1.39100
O198        O  0.64776095  0.53166673  0.35293026    -1.22900
O199        O  0.67707661  0.56012171  0.91784573    -0.85100
O200        O  0.69935632  0.55533062  0.84587168    -0.82100
C201        C  0.69945175  0.53800367  0.85676675     0.98400
O202        O  0.68194997  0.51981751  0.85695491    -0.82200
O203        O  0.63794227  0.48872689  0.85617657    -0.84800
C204        C  0.63142135  0.48768767  0.89633700     1.02900
O205        O  0.63239816  0.50421366  0.91484563    -0.77600
O206        O  0.64188423  0.54654588  0.92807184    -0.77800
C207        C  0.66105623  0.55500706  0.94377674     1.02800
O208        O  0.65418237  0.57408009  0.85750004    -0.85100
O209        O  0.67302854  0.56470855  0.78473802    -0.82200
C210        C  0.67673508  0.55304955  0.75780803     0.98400
O211        O  0.67722036  0.53643516  0.77202117    -0.82200
O212        O  0.63291750  0.50840923  0.77647489    -0.84800
C213        C  0.61363611  0.49967053  0.79122744     1.02900
O214        O  0.60997933  0.50178024  0.83222663    -0.77600
O215        O  0.62271513  0.54516647  0.84124144    -0.77800
C216        C  0.63452732  0.56562147  0.84444923     1.02800
Cr217      Cr  0.67447825  0.56167339  0.85127598     1.93700
Cr218      Cr  0.65736975  0.51477084  0.81777307     1.93200
Cr219      Cr  0.62857771  0.52516718  0.87710590     1.39100
O220        O  0.65346102  0.53386095  0.84879499    -1.22900
O221        O  0.44373357  0.32704828  0.00301907    -0.85100
O222        O  0.44782015  0.30659634  0.07717297    -0.82100
C223        C  0.46553941  0.30663078  0.06987686     0.98400
O224        O  0.48368660  0.32411114  0.07269283    -0.82200
O225        O  0.51376289  0.36872043  0.07249677    -0.84800
C226        C  0.51603510  0.37445407  0.03155794     1.02900
O227        O  0.49996276  0.37234463  0.00925196    -0.77600
O228        O  0.45771907  0.36195542  0.98776302    -0.77800
C229        C  0.44894496  0.34219943  0.97479460     1.02800
O230        O  0.42809725  0.35051884  0.05846417    -0.85100
O231        O  0.43651878  0.33350911  0.13413926    -0.82200
C232        C  0.44717560  0.32996041  0.16361093     0.98400
O233        O  0.46403992  0.32926111  0.15253626    -0.82200
O234        O  0.49086503  0.37403181  0.14604479    -0.84800
C235        C  0.49980459  0.39314678  0.13011693     1.02900
O236        O  0.49931673  0.39617886  0.08807686    -0.77600
O237        O  0.45663875  0.38272260  0.07158206    -0.77800
C238        C  0.43626651  0.37040973  0.06991172     1.02800
Cr239      Cr  0.44093638  0.33087163  0.06854283     1.93700
Cr240      Cr  0.48673201  0.34915886  0.10815511     1.93200
Cr241      Cr  0.47763444  0.37644887  0.04117633     1.39100
O242        O  0.46845547  0.35211194  0.07223741    -1.22900
O243        O  0.44061420  0.32390994  0.50233699    -0.85100
O244        O  0.44627540  0.30356326  0.57576989    -0.82100
C245        C  0.46359372  0.30298983  0.56705320     0.98400
O246        O  0.48188455  0.32038166  0.56700160    -0.82200
O247        O  0.51264287  0.36436834  0.55945768    -0.89600
C248        C  0.51315882  0.36901548  0.51806340     1.02900
O249        O  0.49643120  0.36730412  0.49917801    -0.77600
O250        O  0.45404436  0.35861370  0.48611891    -0.77800
C251        C  0.44481241  0.33878767  0.47396460     1.02800
O252        O  0.42785792  0.34903277  0.56033388    -0.85100
O253        O  0.43784528  0.33217374  0.63433105    -0.82200
C254        C  0.44936333  0.32920417  0.66268782     0.98400
O255        O  0.46602310  0.32846280  0.64984132    -0.82200
O256        O  0.49361881  0.37282985  0.63696661    -0.84800
C257        C  0.50291393  0.39145706  0.61876383     1.02900
O258        O  0.50065214  0.39347206  0.57701258    -0.77600
O259        O  0.45727798  0.38125372  0.56865148    -0.77800
C260        C  0.43679430  0.36943231  0.56836044     1.02800
Cr261      Cr  0.44006263  0.32858989  0.56825009     1.93700
Cr262      Cr  0.48706320  0.34663988  0.60079976     1.93200
Cr263      Cr  0.47638625  0.37330577  0.53516148     1.39100
O264        O  0.46780049  0.34945865  0.56792767    -1.22900
O265        O  0.55069148  0.68331778  0.25127271    -0.85100
O266        O  0.54613374  0.70726106  0.32077836    -0.82100
C267        C  0.52826082  0.70667544  0.31223205     0.98400
O268        O  0.51040726  0.68882505  0.31439844    -0.82200
O269        O  0.48044143  0.64408848  0.32020394    -0.84800
C270        C  0.47917284  0.63656731  0.28080646     1.02900
O271        O  0.49540164  0.63672628  0.26307784    -0.77600
O272        O  0.53754351  0.64780073  0.24605967    -0.77800
C273        C  0.54552285  0.66647130  0.22766771     1.02800
O274        O  0.56721382  0.66374764  0.31321610    -0.85100
O275        O  0.55805106  0.68358899  0.38483385    -0.82200
C276        C  0.54648499  0.68728927  0.41199060     0.98400
O277        O  0.52952042  0.68712042  0.39805828    -0.82200
O278        O  0.50255906  0.64264235  0.39989396    -0.84800
C279        C  0.49463973  0.62283832  0.38899038     1.02900
O280        O  0.49629518  0.61766095  0.34880066    -0.77600
O281        O  0.53975830  0.63238907  0.33509134    -0.77800
C282        C  0.55990002  0.64458647  0.32849703     1.02800
Cr283      Cr  0.55356724  0.68300295  0.31812066     1.93700
Cr284      Cr  0.50716511  0.66541436  0.35557327     1.93200
Cr285      Cr  0.51792365  0.63556788  0.30004651     1.39100
O286        O  0.52614446  0.66134628  0.32421695    -1.22900
O287        O  0.55722908  0.67650358  0.75210517    -0.85100
O288        O  0.54303400  0.69998130  0.80267663    -0.82100
C289        C  0.52977437  0.70329104  0.82505111     0.98400
O290        O  0.51645836  0.68888544  0.85207313    -0.82200
O291        O  0.48496504  0.65572863  0.79874641    -0.84800
C292        C  0.47614961  0.63905280  0.77362061     1.02900
O293        O  0.48515955  0.62771779  0.76697257    -0.77600
O294        O  0.52448199  0.65372275  0.72577051    -0.77800
C295        C  0.54373555  0.66906198  0.71965572     1.02800
O296        O  0.56137046  0.65695730  0.83504220    -0.85100
O297        O  0.55043152  0.68305932  0.88580554    -0.82200
C298        C  0.53750809  0.66995907  0.91528453     0.98400
O299        O  0.51846186  0.65544853  0.90473493    -0.82200
O300        O  0.48475866  0.62358403  0.85618990    -0.84800
C301        C  0.48884265  0.60826687  0.85001572     1.02900
O302        O  0.50521796  0.61144238  0.82702076    -0.77600
O303        O  0.54421668  0.63435806  0.77930932    -0.77800
C304        C  0.55863395  0.64137261  0.80977912     1.02800
Cr305      Cr  0.55084255  0.67742259  0.81865415     1.93700
Cr306      Cr  0.50295850  0.65610714  0.85038697     1.93200
Cr307      Cr  0.51556116  0.63366091  0.77762363     1.39100
O308        O  0.52313242  0.65580345  0.81547773    -1.22900
O309        O  0.32999423  0.45300402  0.17093482    -0.85100
O310        O  0.29965199  0.45863669  0.12410470    -0.82100
C311        C  0.29557904  0.47310814  0.11043904     0.98400
O312        O  0.30860142  0.48832865  0.08498217    -0.82200
O313        O  0.34815865  0.52051016  0.11458760    -0.84800
C314        C  0.36775912  0.53042993  0.12683420     1.02900
O315        O  0.37922801  0.52170291  0.12086860    -0.77600
O316        O  0.35763968  0.48684327  0.18072753    -0.77800
C317        C  0.34262315  0.46889565  0.19658151     1.02800
O318        O  0.34175812  0.43996213  0.08538403    -0.85100
O319        O  0.31240019  0.44669252  0.03992268    -0.82200
C320        C  0.31738525  0.45938421  0.00632388     0.98400
O321        O  0.32859408  0.47987619  0.01044083    -0.82200
O322        O  0.36851316  0.51287699  0.03492268    -0.84800
C323        C  0.38255324  0.50675689  0.03100379     1.02900
O324        O  0.38341282  0.49378888  0.05928136    -0.77600
O325        O  0.36921690  0.46189846  0.12730465    -0.77800
C326        C  0.35925859  0.44456633  0.10499244     1.02800
Cr327      Cr  0.32275091  0.45204548  0.10438017     1.93700
Cr328      Cr  0.33884359  0.49876532  0.06416473     1.93200
Cr329      Cr  0.36988795  0.49005556  0.11978693     1.39100
O330        O  0.34345180  0.48001856  0.09577939    -1.22900
O331        O  0.32502845  0.44422386  0.66922672    -0.85100
O332        O  0.30073369  0.45807392  0.62274452    -0.82100
C333        C  0.29690561  0.47200298  0.60505369     0.98400
O334        O  0.31116858  0.48723801  0.58094102    -0.82200
O335        O  0.34379979  0.51711833  0.63728496    -0.84800
C336        C  0.36074582  0.52567691  0.66133375     1.02900
O337        O  0.37274602  0.51719527  0.66345112    -0.77600
O338        O  0.34779142  0.47620868  0.69974174    -0.77800
C339        C  0.33223005  0.45679069  0.70333668     1.02800
O340        O  0.34541796  0.44296505  0.58472861    -0.85100
O341        O  0.31942444  0.45487885  0.53720711    -0.82200
C342        C  0.33193200  0.46976655  0.50990758     0.98400
O343        O  0.34490488  0.48884086  0.52349698    -0.82200
O344        O  0.37633749  0.52093277  0.57482963    -0.84800
C345        C  0.39133282  0.51616666  0.57515225     1.02900
O346        O  0.38888346  0.49957704  0.59635743    -0.77600
O347        O  0.36814530  0.45959128  0.64031694    -0.77800
C348        C  0.36137496  0.44583309  0.60851688     1.02800
Cr349      Cr  0.32433689  0.45233012  0.60395304     1.93700
Cr350      Cr  0.34389596  0.50159999  0.58147366     1.93200
Cr351      Cr  0.36754104  0.48743323  0.64723835     1.39100
O352        O  0.34510312  0.48035564  0.61093315    -1.22900
O353        O  0.12370829  0.45100981  0.09250331    -0.85100
O354        O  0.14729182  0.45539205  0.16976783    -0.82100
C355        C  0.16514019  0.47311986  0.16309895     0.98400
O356        O  0.16564278  0.49122754  0.16334307    -0.82200
O357        O  0.15172414  0.52141842  0.15710446    -0.84800
C358        C  0.14886763  0.52293065  0.11543771     1.02900
O359        O  0.13499993  0.50644040  0.09362072    -0.77600
O360        O  0.10223045  0.46390583  0.07497835    -0.77800
C361        C  0.11360466  0.45550357  0.06334348     1.02800
O362        O  0.08385121  0.43601547  0.14555536    -0.85100
O363        O  0.10835219  0.44466212  0.22286498    -0.82200
C364        C  0.12218680  0.45558710  0.25290258     0.98400
O365        O  0.13962553  0.47288609  0.24266169    -0.82200
O366        O  0.12222680  0.49988661  0.23010320    -0.84800
C367        C  0.11279787  0.50890323  0.21134103     1.02900
O368        O  0.11025130  0.50795142  0.16901002    -0.77600
O369        O  0.08058736  0.46499123  0.15622189    -0.77800
C370        C  0.07226621  0.44453535  0.15541948     1.02800
Cr371      Cr  0.11624241  0.44862789  0.15772762     1.93700
Cr372      Cr  0.14337924  0.49497662  0.19566047     1.93200
Cr373      Cr  0.10807234  0.48508142  0.12568189     1.39100
O374        O  0.12260965  0.47621270  0.15953048    -1.22900
O375        O  0.12141615  0.44667595  0.59161721    -0.85100
O376        O  0.14748140  0.45261536  0.66546994    -0.82100
C377        C  0.16502460  0.47020048  0.65570712     0.98400
O378        O  0.16540495  0.48827422  0.65557734    -0.82200
O379        O  0.15126224  0.51878199  0.65447733    -0.84800
C380        C  0.14706247  0.52020311  0.61362470     1.02900
O381        O  0.13295031  0.50348040  0.59293304    -0.77600
O382        O  0.10072044  0.46078884  0.57558793    -0.77800
C383        C  0.11112498  0.45139732  0.56330222     1.02800
O384        O  0.08321650  0.43230733  0.64888448    -0.85100
O385        O  0.10993187  0.44271140  0.72372251    -0.82200
C386        C  0.12471388  0.45426161  0.75167967     0.98400
O387        O  0.14217458  0.47065624  0.73820310    -0.82200
O388        O  0.12438329  0.49740515  0.73051780    -0.84800
C389        C  0.11397477  0.50597236  0.71424809     1.02900
O390        O  0.10955155  0.50435264  0.67245412    -0.77600
O391        O  0.07976770  0.46126561  0.65802376    -0.77800
C392        C  0.07140208  0.44082286  0.65636861     1.02800
Cr393      Cr  0.11596060  0.44548243  0.65760869     1.93700
Cr394      Cr  0.14429582  0.49233731  0.69205525     1.93200
Cr395      Cr  0.10691446  0.48176716  0.62697929     1.39100
O396        O  0.12233101  0.47314928  0.65860925    -1.22900
O397        O  0.11670782  0.68115930  0.50826358    -0.85100
O398        O  0.14191828  0.70139611  0.43365385    -0.82100
C399        C  0.15985659  0.70192372  0.44121047     0.98400
O400        O  0.16081158  0.68455231  0.44083874    -0.82200
O401        O  0.14729882  0.64011898  0.44527447    -0.84800
C402        C  0.14363966  0.63504349  0.48656823     1.02900
O403        O  0.12940659  0.63735396  0.50748194    -0.77600
O404        O  0.09614130  0.64633544  0.52460202    -0.77800
C405        C  0.10659340  0.66614652  0.53677452     1.02800
O406        O  0.07833784  0.65634587  0.45172327    -0.85100
O407        O  0.10446540  0.67316489  0.37634801    -0.82200
C408        C  0.11905496  0.67665053  0.34767749     0.98400
O409        O  0.13651035  0.67746970  0.35992283    -0.82200
O410        O  0.11918915  0.63290820  0.37006432    -0.84800
C411        C  0.10952483  0.61418945  0.38781587     1.02900
O412        O  0.10599925  0.61197540  0.42987690    -0.77600
O413        O  0.07547221  0.62413735  0.44305929    -0.77800
C414        C  0.06681224  0.63592883  0.44446870     1.02800
Cr415      Cr  0.11083534  0.67659166  0.44235005     1.93700
Cr416      Cr  0.13940954  0.65862697  0.40671786     1.93200
Cr417      Cr  0.10289673  0.63183419  0.47392984     1.39100
O418        O  0.11772134  0.65574218  0.44124590    -1.22900
O419        O  0.12037168  0.68231581  0.00766388    -0.85100
O420        O  0.14449640  0.70260419  0.93195265    -0.82100
C421        C  0.16267001  0.70377203  0.94008287     0.98400
O422        O  0.16414938  0.68667511  0.94005728    -0.82200
O423        O  0.15173342  0.64250677  0.94541266    -0.84800
C424        C  0.14806239  0.63747220  0.98668932     1.02900
O425        O  0.13338962  0.63912367  0.00733970    -0.77600
O426        O  0.09987861  0.64751602  0.02445870    -0.77800
C427        C  0.11033403  0.66740337  0.03640621     1.02800
O428        O  0.08165829  0.65661661  0.95361599    -0.85100
O429        O  0.10686289  0.67322442  0.87641251    -0.82200
C430        C  0.12139310  0.67685705  0.84745368     0.98400
O431        O  0.13915053  0.67821271  0.85939167    -0.82200
O432        O  0.12339075  0.63389448  0.87015276    -0.84800
C433        C  0.11410949  0.61515536  0.88799465     1.02900
O434        O  0.11033646  0.61298871  0.93001314    -0.77600
O435        O  0.07915505  0.62472302  0.94250065    -0.77800
C436        C  0.07030162  0.63630585  0.94519543     1.02800
Cr437      Cr  0.11384633  0.67727436  0.94217802     1.93700
Cr438      Cr  0.14307967  0.66016969  0.90640635     1.93200
Cr439      Cr  0.10674558  0.63290177  0.97373442     1.39100
O440        O  0.12124436  0.65680442  0.94094019    -1.22900
O441        O  0.86639197  0.55834223  0.34472225    -0.85100
O442        O  0.83963143  0.55062475  0.41792775    -0.82100
C443        C  0.82228099  0.53348631  0.40567319     0.98400
O444        O  0.82155716  0.51529862  0.40349128    -0.82200
O445        O  0.83530562  0.48476518  0.40008351    -0.84800
C446        C  0.83982118  0.48389202  0.35921753     1.02900
O447        O  0.85443285  0.50077462  0.33980026    -0.77600
O448        O  0.88671864  0.54401820  0.32660726    -0.77800
C449        C  0.87661911  0.55388668  0.31554692     1.02800
O450        O  0.90358713  0.57101271  0.40380685    -0.85100
O451        O  0.87576955  0.55900004  0.47798472    -0.82200
C452        C  0.86039047  0.54664150  0.50420157     0.98400
O453        O  0.84329230  0.53072673  0.48805976    -0.82200
O454        O  0.86120193  0.50420809  0.47771333    -0.84800
C455        C  0.87190451  0.49608888  0.46064406     1.02900
O456        O  0.87692386  0.49859236  0.41910142    -0.77600
O457        O  0.90686535  0.54182093  0.40910819    -0.77800
C458        C  0.91516300  0.56225495  0.41075710     1.02800
Cr459      Cr  0.87092839  0.55781502  0.41101017     1.93700
Cr460      Cr  0.84192534  0.51025698  0.43986460     1.93200
Cr461      Cr  0.88007279  0.52202520  0.37593323     1.39100
O462        O  0.86439049  0.53008212  0.40863096    -1.22900
O463        O  0.88356798  0.55681903  0.84257905    -0.85100
O464        O  0.84632610  0.54858377  0.88812986    -0.82100
C465        C  0.82840114  0.53537499  0.90658350     0.98400
O466        O  0.82703283  0.52153321  0.93533778    -0.82200
O467        O  0.83140964  0.48751442  0.90274863    -0.84800
C468        C  0.84022102  0.47751313  0.88578957     1.02900
O469        O  0.86063204  0.48641977  0.88455535    -0.77600
O470        O  0.87203144  0.52209581  0.82793143    -0.77800
C471        C  0.87662184  0.54096062  0.81481850     1.02800
O472        O  0.90635237  0.56648424  0.92953309    -0.85100
O473        O  0.86950812  0.56086276  0.97282623    -0.82200
C474        C  0.86508848  0.54899758  0.00756296     0.98400
O475        O  0.85835808  0.52886642  0.00450502    -0.82200
O476        O  0.86270725  0.49515067  0.97486926    -0.84800
C477        C  0.88275488  0.50059294  0.97327682     1.02900
O478        O  0.89520812  0.51287592  0.94238241    -0.77600
O479        O  0.91099113  0.54647825  0.87971346    -0.77800
C480        C  0.91885318  0.56183780  0.90807644     1.02800
Cr481      Cr  0.87586617  0.55591134  0.90885752     1.93700
Cr482      Cr  0.84660684  0.50977615  0.95124366     1.93200
Cr483      Cr  0.88347041  0.51787302  0.88581756     1.39100
O484        O  0.86849681  0.52790536  0.91579244    -1.22900
O485        O  0.88491075  0.33303586  0.26057849    -0.85100
O486        O  0.84747141  0.30921361  0.21081485    -0.82100
C487        C  0.83097872  0.30584331  0.18839925     0.98400
O488        O  0.83210335  0.31983521  0.16020276    -0.82200
O489        O  0.83414788  0.35397216  0.20957445    -0.84800
C490        C  0.84213940  0.37090506  0.23382779     1.02900
O491        O  0.86249262  0.38216974  0.24018636    -0.77600
O492        O  0.87461853  0.35598690  0.28434485    -0.77800
C493        C  0.87838535  0.34065886  0.29187368     1.02800
O494        O  0.90868690  0.35093223  0.17710335    -0.85100
O495        O  0.87158271  0.32432098  0.12739817    -0.82200
C496        C  0.87217286  0.33706945  0.09674974     0.98400
O497        O  0.86781584  0.35189334  0.10545301    -0.82200
O498        O  0.86691808  0.38509979  0.15041121    -0.84800
C499        C  0.88665789  0.39981371  0.15593086     1.02900
O500        O  0.89909453  0.39659077  0.18115628    -0.77600
O501        O  0.91412250  0.37407012  0.23176184    -0.77800
C502        C  0.92150808  0.36674231  0.20179022     1.02800
Cr503      Cr  0.87772440  0.33108371  0.19400100     1.93700
Cr504      Cr  0.85176997  0.35252213  0.15902270     1.93200
Cr505      Cr  0.88651447  0.37538763  0.23172908     1.39100
O506        O  0.87192181  0.35292140  0.19492554    -1.22900
O507        O  0.87138741  0.32465610  0.76045110    -0.85100
O508        O  0.84432140  0.30304471  0.68822827    -0.82100
C509        C  0.82646474  0.30250548  0.69675165     0.98400
O510        O  0.82546234  0.31982750  0.69699253    -0.82200
O511        O  0.83846070  0.36391025  0.70182378    -0.84800
C512        C  0.84321225  0.36898271  0.74292891     1.02900
O513        O  0.85895812  0.36814565  0.76055278    -0.77600
O514        O  0.89265595  0.35982323  0.77240047    -0.77800
C515        C  0.88253339  0.34040579  0.78693534     1.02800
O516        O  0.90811631  0.34847609  0.69951908    -0.85100
O517        O  0.88009714  0.32999661  0.62736531    -0.82200
C518        C  0.86505726  0.32658600  0.60006923     0.98400
O519        O  0.84810362  0.32654617  0.61360574    -0.82200
O520        O  0.86461165  0.37089952  0.62219140    -0.84800
C521        C  0.87429420  0.38983448  0.63897543     1.02900
O522        O  0.87941357  0.39260991  0.68031877    -0.77600
O523        O  0.91068323  0.38038927  0.68799940    -0.77800
C524        C  0.91941935  0.36861968  0.68954293     1.02800
Cr525      Cr  0.87544704  0.32800600  0.69380275     1.93700
Cr526      Cr  0.84584120  0.34549569  0.66110792     1.93200
Cr527      Cr  0.88428216  0.37339613  0.72303835     1.39100
O528        O  0.86850274  0.34889927  0.69274191    -1.22900
C529        C  0.87558304  0.32405484  0.98389770     0.30000
C530        C  0.86821044  0.31182229  0.94362689    -0.36300
C531        C  0.87688949  0.32355480  0.90328067     0.16000
C532        C  0.89193517  0.34567909  0.90296157     0.21800
C533        C  0.89948341  0.35774316  0.94289845    -0.34400
C534        C  0.89064908  0.34616651  0.98283956     0.15900
O535        O  0.86788378  0.31723129  0.02507071    -0.26500
C536        C  0.87821359  0.33530379  0.05018798     0.05700
C537        C  0.89249959  0.35368113  0.02563103    -0.31300
O538        O  0.89636614  0.35395910  0.86210456    -0.23200
C539        C  0.88411373  0.33704777  0.83539543    -0.03200
C540        C  0.87168409  0.31757584  0.85903025    -0.17600
H541        H  0.85573056  0.29470045  0.94362511     0.20400
H542        H  0.91055431  0.37525904  0.94270276     0.18800
H543        H  0.90176941  0.37046844  0.03724895     0.18700
H544        H  0.85962325  0.30176802  0.84582260     0.14600
C545        C  0.88225075  0.32839370  0.40447942     0.30000
C546        C  0.89303720  0.33010411  0.44542950    -0.36300
C547        C  0.88030852  0.32538001  0.48476961     0.16000
C548        C  0.85847993  0.31927556  0.48361715     0.21800
C549        C  0.84768497  0.31729305  0.44288454    -0.34400
C550        C  0.86039327  0.32220049  0.40383442     0.15900
O551        O  0.89140642  0.33440785  0.36420148    -0.26500
C552        C  0.87512634  0.33196583  0.33778910     0.05700
C553        C  0.85554473  0.32449053  0.36065146    -0.31300
O554        O  0.85020855  0.31788650  0.52403651    -0.23200
C555        C  0.86681326  0.32301845  0.55179121    -0.03200
C556        C  0.88599442  0.32771929  0.52935256    -0.17600
H557        H  0.91036413  0.33585075  0.44670722     0.20400
H558        H  0.83082727  0.31341238  0.44191403     0.18800
H559        H  0.84034245  0.32249898  0.34780280     0.18700
H560        H  0.90205868  0.33356558  0.54358412     0.14600
C561        C  0.89059373  0.47532634  0.06655765     0.30000
C562        C  0.88436150  0.46450248  0.10810143    -0.36300
C563        C  0.89137857  0.44951965  0.11659484     0.16000
C564        C  0.90390962  0.44551587  0.08652060     0.21800
C565        C  0.91090331  0.45706103  0.04558903    -0.34400
C566        C  0.90373282  0.47201493  0.03685582     0.15900
O567        O  0.88256811  0.48686934  0.04877720    -0.26500
C568        C  0.89092764  0.49144090  0.00740373     0.05700
C569        C  0.90449618  0.48290719  0.99822908    -0.31300
O570        O  0.90545530  0.42824857  0.09805737    -0.23200
C571        C  0.89399692  0.42141198  0.13617958    -0.03200
C572        C  0.88495168  0.43404564  0.14923231    -0.17600
H573        H  0.87325116  0.46624345  0.13052890     0.20400
H574        H  0.91983291  0.45334781  0.02062178     0.18800
H575        H  0.91183493  0.48271034  0.96618910     0.18700
H576        H  0.87353656  0.43093438  0.17641983     0.14600
C577        C  0.82124310  0.40039725  0.78312795     0.30000
C578        C  0.81713858  0.41785706  0.77935391    -0.36300
C579        C  0.81883784  0.42937201  0.81930790     0.16000
C580        C  0.82385950  0.42377449  0.86032187     0.21800
C581        C  0.82720631  0.40588225  0.86435894    -0.34400
C582        C  0.82602213  0.39473536  0.82433277     0.15900
O583        O  0.82484114  0.39046676  0.74915769    -0.26500
C584        C  0.83214949  0.37843116  0.76880223     0.05700
C585        C  0.83302344  0.38031245  0.81554850    -0.31300
O586        O  0.82934900  0.43921900  0.89093771    -0.23200
C587        C  0.82753607  0.45484471  0.86986916    -0.03200
C588        C  0.82094362  0.44954789  0.82519996    -0.17600
H589        H  0.81503464  0.42348884  0.74682605     0.20400
H590        H  0.83273369  0.40241416  0.89565195     0.18800
H591        H  0.84006060  0.37388226  0.83911924     0.18700
H592        H  0.82109070  0.46035484  0.79918682     0.14600
C593        C  0.87475778  0.55852215  0.61899641     0.30000
C594        C  0.88869109  0.56773931  0.65649480    -0.36300
C595        C  0.88036047  0.55745642  0.69839833     0.16000
C596        C  0.85986036  0.53923463  0.70284149     0.21800
C597        C  0.84578016  0.53048065  0.66582902    -0.34400
C598        C  0.85399959  0.54082533  0.62429374     0.15900
O599        O  0.87977073  0.56394431  0.57598564    -0.26500
C600        C  0.86183199  0.54960334  0.55377152     0.05700
C601        C  0.84529440  0.53507612  0.58235858    -0.31300
O602        O  0.85592857  0.53110221  0.74403877    -0.23200
C603        C  0.87394993  0.54448537  0.76681731    -0.03200
C604        C  0.88967704  0.56132305  0.74031284    -0.17600
H605        H  0.90513274  0.58142171  0.65301041     0.20400
H606        H  0.82978424  0.51605058  0.66887991     0.18800
H607        H  0.82963290  0.52120229  0.57324210     0.18700
H608        H  0.90588430  0.57398191  0.75012938     0.14600
C609        C  0.86527992  0.56148731  0.20369073     0.30000
C610        C  0.85172146  0.55869306  0.16653703    -0.36300
C611        C  0.86109523  0.56088773  0.12350448     0.16000
C612        C  0.88244485  0.56584830  0.11758690     0.21800
C613        C  0.89597907  0.56880951  0.15458826    -0.34400
C614        C  0.88652115  0.56619330  0.19738392     0.15900
O615        O  0.85926446  0.55776671  0.24658657    -0.26500
C616        C  0.87684122  0.55992088  0.26780780     0.05700
C617        C  0.89422273  0.56512203  0.23878354    -0.31300
O618        O  0.88710457  0.56432927  0.07509802    -0.23200
C619        C  0.86864711  0.55852299  0.05305817    -0.03200
C620        C  0.85183253  0.55601762  0.08150508    -0.17600
H621        H  0.83468613  0.55379991  0.17082983     0.20400
H622        H  0.91233385  0.57150222  0.15022991     0.18800
H623        H  0.90985666  0.56667173  0.24676044     0.18700
H624        H  0.83479116  0.54944405  0.07310142     0.14600
C625        C  0.87788885  0.46512588  0.54506213     0.30000
C626        C  0.87588737  0.45683309  0.58874719    -0.36300
C627        C  0.87816486  0.43832995  0.59276721     0.16000
C628        C  0.88179567  0.42836646  0.55626404     0.21800
C629        C  0.88436311  0.43701661  0.51261568    -0.34400
C630        C  0.88236621  0.45574742  0.50866477     0.15900
O631        O  0.87443056  0.48108836  0.53317265    -0.26500
C632        C  0.87702987  0.48219594  0.48866019     0.05700
C633        C  0.88219773  0.46697609  0.47153234    -0.31300
O634        O  0.88132676  0.41003823  0.56742650    -0.23200
C635        C  0.87786053  0.40863891  0.61176227    -0.03200
C636        C  0.87588333  0.42581808  0.62931598    -0.17600
H637        H  0.87204277  0.46384919  0.61738323     0.20400
H638        H  0.88694218  0.42924937  0.48358519     0.18800
H639        H  0.88404181  0.46369809  0.43658265     0.18700
H640        H  0.87207137  0.42804467  0.66363092     0.14600
C641        C  0.82483118  0.43873715  0.28860959     0.30000
C642        C  0.82531894  0.42835832  0.24859333    -0.36300
C643        C  0.82316905  0.40759581  0.25334889     0.16000
C644        C  0.82104815  0.39781878  0.29479184     0.21800
C645        C  0.81932886  0.40765810  0.33453979    -0.34400
C646        C  0.82121065  0.42829086  0.32971210     0.15900
O647        O  0.83067844  0.45961522  0.29287785    -0.26500
C648        C  0.83018990  0.46236381  0.33719339     0.05700
C649        C  0.82411451  0.44335187  0.36159009    -0.31300
O650        O  0.82492605  0.38138657  0.29267856    -0.23200
C651        C  0.82878064  0.38010727  0.24915128    -0.03200
C652        C  0.82762530  0.39584490  0.22318687    -0.17600
H653        H  0.82921686  0.43675239  0.21642526     0.20400
H654        H  0.81875094  0.40070997  0.36748113     0.18800
H655        H  0.82443904  0.44163138  0.39788414     0.18700
H656        H  0.83296454  0.40026476  0.18857958     0.14600
C657        C  0.97412243  0.59801138  0.93361564     0.30000
C658        C  0.99257466  0.61730376  0.94887934    -0.36300
C659        C  0.01281271  0.61831913  0.94325708     0.16000
C660        C  0.01463447  0.60134730  0.92468985     0.21800
C661        C  0.99629929  0.58218757  0.90942024    -0.34400
C662        C  0.97623626  0.58135742  0.91428624     0.15900
O663        O  0.95358695  0.59353531  0.93466342    -0.26500
C664        C  0.94261688  0.57389904  0.91519098     0.05700
C665        C  0.95590652  0.56561435  0.90192144    -0.31300
O666        O  0.03495351  0.60553863  0.92288516    -0.23200
C667        C  0.04647954  0.62559342  0.93996537    -0.03200
C668        C  0.03359898  0.63442460  0.95324311    -0.17600
H669        H  0.99127806  0.63064741  0.96362629     0.20400
H670        H  0.99761566  0.56891625  0.89433156     0.18800
H671        H  0.95119807  0.55013139  0.88560416     0.18700
H672        H  0.03877711  0.65022713  0.96850309     0.14600
C673        C  0.97064299  0.58198547  0.42968757     0.30000
C674        C  0.98905568  0.57981713  0.43548637    -0.36300
C675        C  0.00911278  0.59929695  0.43668686     0.16000
C676        C  0.01112899  0.61970840  0.43302472     0.21800
C677        C  0.99254114  0.62189895  0.42723924    -0.34400
C678        C  0.97229631  0.60223460  0.42560312     0.15900
O679        O  0.95047949  0.56571347  0.42593315    -0.26500
C680        C  0.93878775  0.57541888  0.41926103     0.05700
C681        C  0.95144767  0.59821489  0.41883688    -0.31300
O682        O  0.03176143  0.63568271  0.43513222    -0.23200
C683        C  0.04289477  0.62515603  0.43980114    -0.03200
C684        C  0.02957449  0.60254555  0.44088713    -0.17600
H685        H  0.98784039  0.56395754  0.43819443     0.20400
H686        H  0.99378767  0.63773867  0.42374126     0.18800
H687        H  0.94615802  0.60998336  0.41322267     0.18700
H688        H  0.03431851  0.59024495  0.44461169     0.14600
C689        C  0.12027334  0.68290180  0.64881915     0.30000
C690        C  0.13463687  0.69268933  0.68512669    -0.36300
C691        C  0.12548535  0.68644262  0.72831347     0.16000
C692        C  0.10360720  0.67183035  0.73554084     0.21800
C693        C  0.08924651  0.66186641  0.69915627    -0.34400
C694        C  0.09849443  0.66783906  0.65587572     0.15900
O695        O  0.12571201  0.68524043  0.60574576    -0.26500
C696        C  0.10724210  0.67134444  0.58490773     0.05700
C697        C  0.08979604  0.65997519  0.61437787    -0.31300
O698        O  0.09888329  0.66743889  0.77879307    -0.23200
C699        C  0.11803783  0.67928377  0.79937011    -0.03200
C700        C  0.13513010  0.69132606  0.76959310    -0.17600
H701        H  0.15191965  0.70377786  0.68005383     0.20400
H702        H  0.07225613  0.64968850  0.70423738     0.18800
H703        H  0.07336593  0.64714640  0.60644479     0.18700
H704        H  0.15234097  0.70139768  0.77719502     0.14600
C705        C  0.10135008  0.66973790  0.15201700     0.30000
C706        C  0.08982021  0.66267553  0.19290440    -0.36300
C707        C  0.10203980  0.67185829  0.23232716     0.16000
C708        C  0.12418189  0.68662537  0.23150664     0.21800
C709        C  0.13556667  0.69417374  0.19060704    -0.34400
C710        C  0.12326292  0.68532323  0.15119745     0.15900
O711        O  0.09367373  0.66180710  0.11154360    -0.26500
C712        C  0.11074407  0.67287300  0.08436085     0.05700
C713        C  0.12954892  0.68785407  0.10708485    -0.31300
O714        O  0.13289965  0.69101649  0.27217150    -0.23200
C715        C  0.11605876  0.67937850  0.29955289    -0.03200
C716        C  0.09639556  0.66726403  0.27668012    -0.17600
H717        H  0.07272524  0.65022411  0.19398212     0.20400
H718        H  0.15298856  0.70546954  0.18962135     0.18800
H719        H  0.14580383  0.69790769  0.09344041     0.18700
H720        H  0.08067218  0.65541456  0.29046573     0.14600
C721        C  0.01535131  0.42128922  0.66552520     0.30000
C722        C  0.99690472  0.42365986  0.66729950    -0.36300
C723        C  0.97687414  0.40440123  0.67253045     0.16000
C724        C  0.97490670  0.38401656  0.67614489     0.21800
C725        C  0.99353123  0.38159383  0.67401146    -0.34400
C726        C  0.01378047  0.40104417  0.66842860     0.15900
O727        O  0.03556864  0.43738052  0.66123928    -0.26500
C728        C  0.04745155  0.42761326  0.66108202     0.05700
C729        C  0.03479438  0.40488752  0.66527625    -0.31300
O730        O  0.95434096  0.36834540  0.68211798    -0.23200
C731        C  0.94319574  0.37901268  0.68193046    -0.03200
C732        C  0.95645998  0.40142915  0.67599790    -0.17600
H733        H  0.99811909  0.43953213  0.66499759     0.20400
H734        H  0.99233923  0.36575114  0.67676517     0.18800
H735        H  0.04025382  0.39306223  0.66620307     0.18700
H736        H  0.95175399  0.41384097  0.67527519     0.14600
C737        C  0.16023406  0.59763369  0.51393499     0.30000
C738        C  0.16108282  0.57849038  0.50547014    -0.36300
C739        C  0.16095466  0.56665358  0.54351530     0.16000
C740        C  0.16079968  0.57361872  0.58700854     0.21800
C741        C  0.16013927  0.59286669  0.59548197    -0.34400
C742        C  0.15949012  0.60429390  0.55741067     0.15900
O743        O  0.15666683  0.60903724  0.48346594    -0.26500
C744        C  0.15330006  0.62301796  0.50754137     0.05700
C745        C  0.15488313  0.62083943  0.55381477    -0.31300
O746        O  0.15789052  0.55877419  0.61733269    -0.23200
C747        C  0.15585128  0.54194443  0.59311103    -0.03200
C748        C  0.15764531  0.54592378  0.54692238    -0.17600
H749        H  0.16005661  0.57230477  0.47157214     0.20400
H750        H  0.15840030  0.59758664  0.62933279     0.18800
H751        H  0.15123497  0.62888189  0.58078678     0.18700
H752        H  0.15490972  0.53451973  0.51982002     0.14600
C753        C  0.10402596  0.54551918  0.76195596     0.30000
C754        C  0.10264494  0.56467240  0.76156989    -0.36300
C755        C  0.10448242  0.57463384  0.80361053     0.16000
C756        C  0.10693023  0.56601365  0.84345639     0.21800
C757        C  0.10821455  0.54680919  0.84387690    -0.34400
C758        C  0.10689166  0.53713714  0.80172494     0.15900
O759        O  0.10495760  0.53488498  0.72615194    -0.26500
C760        C  0.10865422  0.51961398  0.74311868     0.05700
C761        C  0.10994884  0.52018871  0.78998941    -0.31300
O762        O  0.10967612  0.57869309  0.87848356    -0.23200
C763        C  0.10925897  0.59579101  0.86083845    -0.03200
C764        C  0.10609040  0.59418335  0.81437318    -0.17600
H765        H  0.10134584  0.57190360  0.73042499     0.20400
H766        H  0.11111318  0.54045982  0.87467265     0.18800
H767        H  0.11379919  0.51035842  0.81193210     0.18700
H768        H  0.10584666  0.60605919  0.79172532     0.14600
C769        C  0.97816238  0.40130219  0.20013548     0.30000
C770        C  0.99765992  0.42092125  0.20779108    -0.36300
C771        C  0.01653396  0.42220966  0.18968098     0.16000
C772        C  0.01647470  0.40527239  0.16618936     0.21800
C773        C  0.99683115  0.38555464  0.15833916    -0.34400
C774        C  0.97776830  0.38438048  0.17589782     0.15900
O775        O  0.95860218  0.39703939  0.21289266    -0.26500
C776        C  0.94530886  0.37719853  0.19631932     0.05700
C777        C  0.95627763  0.36845531  0.17285435    -0.31300
O778        O  0.03618308  0.41042311  0.15159075    -0.23200
C779        C  0.04882004  0.43098635  0.16564808    -0.03200
C780        C  0.03741321  0.43907258  0.18940907    -0.17600
H781        H  0.99802372  0.43444390  0.22585978     0.20400
H782        H  0.99637976  0.37227260  0.13914939     0.18800
H783        H  0.94940846  0.35281940  0.15576805     0.18700
H784        H  0.04362408  0.45521857  0.20388348     0.14600
C785        C  0.16483042  0.57671178  0.08864664     0.30000
C786        C  0.16440125  0.59608153  0.09670799    -0.36300
C787        C  0.16426054  0.60758682  0.05839912     0.16000
C788        C  0.16528767  0.60088991  0.01509652     0.21800
C789        C  0.16595987  0.58164227  0.00705218    -0.34400
C790        C  0.16529615  0.56971458  0.04531984     0.15900
O791        O  0.16109457  0.56168425  0.11905119    -0.26500
C792        C  0.15881009  0.54471880  0.09505085     0.05700
C793        C  0.16133247  0.54877555  0.04893327    -0.31300
O794        O  0.16181243  0.61218505  0.98428909    -0.23200
C795        C  0.15822517  0.62609976  0.00798702    -0.03200
C796        C  0.15959545  0.62404100  0.05432327    -0.17600
H797        H  0.16228202  0.60075122  0.13033471     0.20400
H798        H  0.16501740  0.57538131  0.97325185     0.18800
H799        H  0.15845801  0.53728798  0.02191927     0.18700
H800        H  0.15554699  0.63192213  0.08096957     0.14600
C801        C  0.10223767  0.53750885  0.29413628     0.30000
C802        C  0.10206055  0.54470702  0.33804981    -0.36300
C803        C  0.10105191  0.56392967  0.34164995     0.16000
C804        C  0.10046778  0.57546600  0.30462056     0.21800
C805        C  0.09985547  0.56783309  0.26063911    -0.34400
C806        C  0.10072749  0.54848637  0.25704170     0.15900
O807        O  0.10583684  0.52153407  0.28299509    -0.26500
C808        C  0.10631345  0.52207955  0.23822519     0.05700
C809        C  0.10297197  0.53832084  0.22014652    -0.31300
O810        O  0.10259317  0.59452585  0.31580745    -0.23200
C811        C  0.10412232  0.59488330  0.36053638    -0.03200
C812        C  0.10303631  0.57622154  0.37844605    -0.17600
H813        H  0.10386330  0.53659764  0.36729160     0.20400
H814        H  0.09998193  0.57698512  0.23129085     0.18800
H815        H  0.10386345  0.54304144  0.18513914     0.18700
H816        H  0.10521916  0.57303505  0.41320342     0.14600
C817        C  0.10634246  0.44407798  0.94753269     0.30000
C818        C  0.09488143  0.43762954  0.90646599    -0.36300
C819        C  0.10766898  0.44224799  0.86730926     0.16000
C820        C  0.13018550  0.45289742  0.86858811     0.21800
C821        C  0.14159002  0.45892642  0.90960944    -0.34400
C822        C  0.12880922  0.45388836  0.94871840     0.15900
O823        O  0.09786034  0.44277825  0.98790745    -0.26500
C824        C  0.11507901  0.45130234  0.01531872     0.05700
C825        C  0.13474190  0.45841416  0.99286145    -0.31300
O826        O  0.13901224  0.45759830  0.82805565    -0.23200
C827        C  0.12198333  0.44947482  0.80024554    -0.03200
C828        C  0.10201189  0.43957251  0.82273383    -0.17600
H829        H  0.07729142  0.43013305  0.90505984     0.20400
H830        H  0.15924962  0.46753237  0.91086845     0.18800
H831        H  0.15108020  0.46691819  0.00676049     0.18700
H832        H  0.08584544  0.43290468  0.80842095     0.14600
C833        C  0.10223622  0.44143675  0.44724996     0.30000
C834        C  0.09129245  0.43867668  0.40613405    -0.36300
C835        C  0.10354530  0.44142356  0.36688695     0.16000
C836        C  0.12520651  0.44692378  0.36811569     0.21800
C837        C  0.13590139  0.44891025  0.40918710    -0.34400
C838        C  0.12354815  0.44580418  0.44839510     0.15900
O839        O  0.09473848  0.44204468  0.48771313    -0.26500
C840        C  0.11126702  0.44631320  0.51521432     0.05700
C841        C  0.12954209  0.44859560  0.49268310    -0.31300
O842        O  0.13439452  0.45170975  0.32786079    -0.23200
C843        C  0.11828496  0.44865859  0.30030172    -0.03200
C844        C  0.09864635  0.44204785  0.32261113    -0.17600
H845        H  0.07473569  0.43568270  0.40482758     0.20400
H846        H  0.15299223  0.45364282  0.41052598     0.18800
H847        H  0.14545603  0.45338870  0.50658038     0.18700
H848        H  0.08358687  0.43996612  0.30871217     0.14600
C849        C  0.20891558  0.46012601  0.64439739     0.30000
C850        C  0.22034997  0.44867118  0.64905588    -0.36300
C851        C  0.24202726  0.45938591  0.63309633     0.16000
C852        C  0.25170826  0.47987675  0.61363720     0.21800
C853        C  0.24038701  0.49137858  0.60942614    -0.34400
C854        C  0.21884023  0.48076369  0.62560796     0.15900
O855        O  0.18852455  0.45333500  0.65696824    -0.26500
C856        C  0.18545687  0.46995037  0.64630835     0.05700
C857        C  0.20383032  0.48743787  0.62688979    -0.31300
O858        O  0.27202771  0.48683709  0.60080990    -0.23200
C859        C  0.27559484  0.47068752  0.61238483    -0.03200
C860        C  0.25749280  0.45318669  0.63275591    -0.17600
H861        H  0.21289939  0.43257073  0.66414463     0.20400
H862        H  0.24789246  0.50754622  0.59463347     0.18800
H863        H  0.20581818  0.50287354  0.61539497     0.18700
H864        H  0.25598861  0.43813682  0.64548296     0.14600
C865        C  0.25207795  0.48272885  0.12777359     0.30000
C866        C  0.24108428  0.49452024  0.12377548    -0.36300
C867        C  0.21942897  0.48393887  0.13893791     0.16000
C868        C  0.20910512  0.46308241  0.15671052     0.21800
C869        C  0.22027474  0.45135792  0.16141070    -0.34400
C870        C  0.24209520  0.46202730  0.14630436     0.15900
O871        O  0.27207721  0.48926259  0.11371930    -0.26500
C872        C  0.27522658  0.47267658  0.12352408     0.05700
C873        C  0.25714590  0.45526199  0.14416107    -0.31300
O874        O  0.18847504  0.45618836  0.16732314    -0.23200
C875        C  0.18573464  0.47297676  0.15642866    -0.03200
C876        C  0.20449667  0.49066705  0.13885481    -0.17600
H877        H  0.24879195  0.51072487  0.10910717     0.20400
H878        H  0.21241855  0.43497024  0.17518132     0.18800
H879        H  0.25514495  0.43967915  0.15457305     0.18700
H880        H  0.20670814  0.50616940  0.12719503     0.14600
C881        C  0.30965020  0.45165011  0.81022680     0.30000
C882        C  0.30235996  0.45925888  0.84612530    -0.36300
C883        C  0.30443268  0.45251744  0.88927750     0.16000
C884        C  0.31285012  0.43891002  0.89691771     0.21800
C885        C  0.31959575  0.43072940  0.86065534    -0.34400
C886        C  0.31774768  0.43771647  0.81723365     0.15900
O887        O  0.31248206  0.45893188  0.76850542    -0.26500
C888        C  0.32215349  0.44931685  0.74791907     0.05700
C889        C  0.32580716  0.43582908  0.77644916    -0.31300
O890        O  0.31662536  0.43771976  0.94028342    -0.23200
C891        C  0.31046369  0.45067702  0.96041336    -0.03200
C892        C  0.30269640  0.46018332  0.93023010    -0.17600
H893        H  0.29713038  0.47111054  0.84106277     0.20400
H894        H  0.32734777  0.42105618  0.86615455     0.18800
H895        H  0.33498568  0.42768016  0.76932314     0.18700
H896        H  0.29864389  0.47280315  0.93704963     0.14600
C897        C  0.34502697  0.47242200  0.39587503     0.30000
C898        C  0.35836927  0.48232243  0.35846606    -0.36300
C899        C  0.34919663  0.47364890  0.31651201     0.16000
C900        C  0.32831625  0.45617078  0.31118974     0.21800
C901        C  0.31490021  0.44595624  0.34910661    -0.34400
C902        C  0.32412265  0.45482321  0.39161988     0.15900
O903        O  0.35015424  0.47919256  0.43764797    -0.26500
C904        C  0.33252251  0.46579010  0.46131538     0.05700
C905        C  0.31568589  0.45006630  0.43462291    -0.31300
O906        O  0.32298355  0.45158594  0.26804123    -0.23200
C907        C  0.34071147  0.46653506  0.24605791    -0.03200
C908        C  0.35744061  0.48053511  0.27466721    -0.17600
H909        H  0.37462057  0.49636405  0.36181183     0.20400
H910        H  0.29832764  0.43251179  0.34565855     0.18800
H911        H  0.29943462  0.43775425  0.44500680     0.18700
H912        H  0.37330975  0.49416133  0.26581237     0.14600
C913        C  0.41347134  0.53542105  0.93718040     0.30000
C914        C  0.41832945  0.54975000  0.90091068    -0.36300
C915        C  0.44021755  0.56138923  0.88762708     0.16000
C916        C  0.45645180  0.55908131  0.90810907     0.21800
C917        C  0.45139159  0.54400460  0.94358812    -0.34400
C918        C  0.42934131  0.53241566  0.95734899     0.15900
O919        O  0.39483187  0.52582441  0.95924600    -0.26500
C920        C  0.39847270  0.51620471  0.99391495     0.05700
C921        C  0.41960972  0.51947037  0.99426268    -0.31300
O922        O  0.47625911  0.57435608  0.89503937    -0.23200
C923        C  0.47240052  0.58635527  0.86582521    -0.03200
C924        C  0.45032084  0.57885778  0.85983273    -0.17600
H925        H  0.40618079  0.55296743  0.88647498     0.20400
H926        H  0.46397932  0.54268689  0.96153666     0.18800
H927        H  0.42723706  0.51480948  0.02017994     0.18700
H928        H  0.44289972  0.58658319  0.84109160     0.14600
C929        C  0.39424366  0.58032742  0.68530310     0.30000
C930        C  0.41331923  0.60011811  0.67521654    -0.36300
C931        C  0.42656751  0.61171507  0.71200355     0.16000
C932        C  0.42106221  0.60458856  0.75592137     0.21800
C933        C  0.40182697  0.58497928  0.76607228    -0.34400
C934        C  0.38888027  0.57308922  0.72919447     0.15900
O935        O  0.38244819  0.56493968  0.65570114    -0.26500
C936        C  0.36931557  0.54757966  0.68060276     0.05700
C937        C  0.37262909  0.55172890  0.72664551    -0.31300
O938        O  0.43738566  0.61555558  0.78406839    -0.23200
C939        C  0.45360573  0.62995780  0.75821013    -0.03200
C940        C  0.44782780  0.62824345  0.71294714    -0.17600
H941        H  0.41861224  0.60493062  0.64075436     0.20400
H942        H  0.39840860  0.57833085  0.79990499     0.18800
H943        H  0.36634853  0.53991932  0.75381998     0.18700
H944        H  0.45851775  0.63594455  0.68438956     0.14600
C945        C  0.54595918  0.68832349  0.61051480     0.30000
C946        C  0.53768562  0.69434989  0.57391603    -0.36300
C947        C  0.54616397  0.69389391  0.53153271     0.16000
C948        C  0.56170898  0.68781350  0.52508895     0.21800
C949        C  0.57042784  0.68223043  0.56210527    -0.34400
C950        C  0.56198448  0.68281663  0.60490338     0.15900
O951        O  0.53837671  0.68523546  0.65204035    -0.26500
C952        C  0.54996930  0.67814911  0.67400104     0.05700
C953        C  0.56500755  0.67635652  0.64651583    -0.31300
O954        O  0.56515548  0.68594596  0.48172986    -0.23200
C955        C  0.55170403  0.69106795  0.46051307    -0.03200
C956        C  0.53971198  0.69631062  0.48998572    -0.17600
H957        H  0.52463037  0.69799135  0.57792857     0.20400
H958        H  0.58209674  0.67673236  0.55764923     0.18800
H959        H  0.57524545  0.66954832  0.65507052     0.18700
H960        H  0.52674768  0.69964894  0.48195732     0.14600
C961        C  0.55573571  0.67976625  0.11194944     0.30000
C962        C  0.56281230  0.69303934  0.07296510    -0.36300
C963        C  0.55532092  0.68204965  0.03126754     0.16000
C964        C  0.54173718  0.65965339  0.02867912     0.21800
C965        C  0.53522895  0.64648163  0.06714475    -0.34400
C966        C  0.54275036  0.65734571  0.10831037     0.15900
O967        O  0.55906324  0.68638566  0.15464001    -0.26500
C968        C  0.54823341  0.66781627  0.17812231     0.05700
C969        C  0.53796573  0.64935683  0.15085111    -0.31300
O970        O  0.53464393  0.65280638  0.98760414    -0.23200
C971        C  0.54395498  0.67085171  0.96275530    -0.03200
C972        C  0.55727280  0.68966146  0.98790981    -0.17600
H973        H  0.57269125  0.71068359  0.07506803     0.20400
H974        H  0.52423540  0.62897541  0.06521979     0.18800
H975        H  0.52750056  0.63249917  0.16097288     0.18700
H976        H  0.56574512  0.70648521  0.97655040     0.14600
C977        C  0.43711492  0.56139615  0.52955897     0.30000
C978        C  0.45127923  0.58388298  0.52314591    -0.36300
C979        C  0.46339288  0.58989206  0.48301300     0.16000
C980        C  0.46165376  0.57485036  0.45105305     0.21800
C981        C  0.44778311  0.55223967  0.45795548    -0.34400
C982        C  0.43573069  0.54617579  0.49841724     0.15900
O983        O  0.42254103  0.55252309  0.56205916    -0.26500
C984        C  0.41196352  0.53123977  0.55250767     0.05700
C985        C  0.41948013  0.52626742  0.51330734    -0.31300
O986        O  0.47296007  0.58431652  0.41409073    -0.23200
C987        C  0.48217854  0.60567787  0.42278128    -0.03200
C988        C  0.47688791  0.61004033  0.46531289    -0.17600
H989        H  0.45202964  0.59593726  0.54684235     0.20400
H990        H  0.44580751  0.54028421  0.43269182     0.18800
H991        H  0.41262984  0.51064078  0.49617786     0.18700
H992        H  0.48135767  0.62579678  0.48000599     0.14600
C993        C  0.39486345  0.57560981  0.19681360     0.30000
C994        C  0.40284318  0.58515994  0.23939038    -0.36300
C995        C  0.42444680  0.60280129  0.24047276     0.16000
C996        C  0.43724434  0.61040680  0.20220653     0.21800
C997        C  0.42903421  0.60145363  0.15966131    -0.34400
C998        C  0.40754542  0.58392590  0.15857897     0.15900
O999        O  0.37719530  0.55640612  0.18929851    -0.26500
C1000       C  0.37844674  0.55263675  0.14561326     0.05700
C1001       C  0.39691464  0.56932786  0.12496210    -0.31300
O1002       O  0.45788882  0.62425460  0.21140165    -0.23200
C1003       C  0.45840754  0.62601854  0.25606814    -0.03200
C1004       C  0.43802821  0.61320569  0.27607468    -0.17600
H1005       H  0.39358043  0.57812514  0.26996236     0.20400
H1006       H  0.43933905  0.60653753  0.12996430     0.18800
H1007       H  0.40322139  0.56909300  0.09176323     0.18700
H1008       H  0.43429456  0.61020765  0.31166696     0.14600
C1009       C  0.37882177  0.40770369  0.58858325     0.30000
C1010       C  0.37698720  0.38708392  0.58140765    -0.36300
C1011       C  0.39673402  0.38674094  0.58021136     0.16000
C1012       C  0.41680549  0.40544023  0.58543571     0.21800
C1013       C  0.41862012  0.42589683  0.59290287    -0.34400
C1014       C  0.39899262  0.42619138  0.59453090     0.15900
O1015       O  0.36263469  0.41199196  0.59139443    -0.26500
C1016       C  0.37270986  0.43345004  0.59978584     0.05700
C1017       C  0.39526800  0.44302427  0.60223205    -0.31300
O1018       O  0.43318869  0.40164245  0.58248703    -0.23200
C1019       C  0.42367918  0.38017298  0.57542733    -0.03200
C1020       C  0.40094793  0.36997360  0.57377660    -0.17600
H1021       H  0.36130402  0.37236633  0.57716907     0.20400
H1022       H  0.43430395  0.44060313  0.59732102     0.18800
H1023       H  0.40718811  0.45999291  0.60891979     0.18700
H1024       H  0.38931390  0.35283724  0.56804780     0.14600
C1025       C  0.39248047  0.42110958  0.11083260     0.30000
C1026       C  0.41198689  0.42131664  0.11971339    -0.36300
C1027       C  0.41320502  0.40327950  0.10394433     0.16000
C1028       C  0.39627958  0.38588743  0.08161413     0.21800
C1029       C  0.37653176  0.38557593  0.07314541    -0.34400
C1030       C  0.37543609  0.40394147  0.08825176     0.15900
O1031       O  0.38864489  0.43709518  0.11998282    -0.26500
C1032       C  0.36892034  0.43035337  0.10291488     0.05700
C1033       C  0.35977126  0.40974065  0.08282522    -0.31300
O1034       O  0.40167071  0.37138328  0.06758512    -0.23200
C1035       C  0.42235610  0.37984734  0.08086281    -0.03200
C1036       C  0.43024746  0.39958834  0.10376361    -0.17600
H1037       H  0.42562187  0.43503630  0.13624721     0.20400
H1038       H  0.36330915  0.37238093  0.05459826     0.18800
H1039       H  0.34420737  0.40068380  0.06580641     0.18700
H1040       H  0.44649631  0.41008046  0.11704451     0.14600
C1041       C  0.43965897  0.33985756  0.85786591     0.30000
C1042       C  0.43612875  0.34697435  0.81616170    -0.36300
C1043       C  0.43831957  0.33659803  0.77764500     0.16000
C1044       C  0.44405910  0.32060755  0.77987649     0.21800
C1045       C  0.44682957  0.31292833  0.82169440    -0.34400
C1046       C  0.44424832  0.32305508  0.86029596     0.15900
O1047       O  0.44030901  0.34860295  0.89772678    -0.26500
C1048       C  0.44487077  0.33693132  0.92629871     0.05700
C1049       C  0.44727693  0.32065984  0.90494782    -0.31300
O1050       O  0.44794598  0.31517156  0.73960262    -0.23200
C1051       C  0.44404100  0.32740632  0.71117709    -0.03200
C1052       C  0.43779581  0.34087571  0.73297563    -0.17600
H1053       H  0.43276978  0.36030017  0.81380358     0.20400
H1054       H  0.45155978  0.30056992  0.82394866     0.18800
H1055       H  0.45190901  0.30960945  0.91990270     0.18700
H1056       H  0.43505557  0.35330024  0.71820768     0.14600
C1057       C  0.44028486  0.31953817  0.27937347     0.30000
C1058       C  0.44329434  0.31166854  0.32052876    -0.36300
C1059       C  0.43967330  0.32065636  0.35953724     0.16000
C1060       C  0.43395888  0.33668708  0.35822540     0.21800
C1061       C  0.43025059  0.34406613  0.31698518    -0.34400
C1062       C  0.43345916  0.33473163  0.27787766     0.15900
O1063       O  0.44505832  0.31510915  0.23913402    -0.26500
C1064       C  0.44067464  0.32713393  0.21126959     0.05700
C1065       C  0.43323045  0.33956066  0.23339813    -0.31300
O1066       O  0.43421460  0.34476670  0.39860750    -0.23200
C1067       C  0.43958432  0.33331968  0.42609780    -0.03200
C1068       C  0.44296814  0.31796929  0.40370866    -0.17600
H1069       H  0.44903651  0.30007166  0.32203463     0.20400
H1070       H  0.42613216  0.35688653  0.31544099     0.18800
H1071       H  0.43000535  0.35175756  0.21914290     0.18700
H1072       H  0.44876156  0.30764087  0.41761544     0.14600
C1073       C  0.75297545  0.54727702  0.86434746     0.30000
C1074       C  0.77549343  0.55745721  0.85515149    -0.36300
C1075       C  0.78635819  0.54692604  0.87230814     0.16000
C1076       C  0.77577089  0.52782376  0.89699475     0.21800
C1077       C  0.75332810  0.51757711  0.90570958    -0.34400
C1078       C  0.74250385  0.52798726  0.88842841     0.15900
O1079       O  0.73943083  0.55395023  0.85115566    -0.26500
C1080       C  0.72008298  0.53858575  0.86679140     0.05700
C1081       C  0.72106938  0.52208067  0.89017716    -0.31300
O1082       O  0.78906074  0.52116844  0.91135709    -0.23200
C1083       C  0.80849394  0.53607946  0.89558711    -0.03200
C1084       C  0.80782106  0.55245308  0.87067721    -0.17600
H1085       H  0.78393514  0.57250650  0.83607233     0.20400
H1086       H  0.74489029  0.50253885  0.92483552     0.18800
H1087       H  0.70779737  0.50760347  0.90552065     0.18700
H1088       H  0.82125896  0.56665668  0.85496401     0.14600
C1089       C  0.58338912  0.60905519  0.80386413     0.30000
C1090       C  0.58587268  0.59162323  0.78847381    -0.36300
C1091       C  0.60228511  0.58919908  0.80934783     0.16000
C1092       C  0.61561424  0.60312283  0.84274517     0.21800
C1093       C  0.61303892  0.62055288  0.85834833    -0.34400
C1094       C  0.59641220  0.62285933  0.83772690     0.15900
O1095       O  0.56871021  0.61392229  0.78961269    -0.26500
C1096       C  0.57221741  0.63106390  0.81464164     0.05700
C1097       C  0.58925224  0.63734738  0.84532646    -0.31300
O1098       O  0.62947700  0.59732683  0.85840100    -0.23200
C1099       C  0.62476048  0.57935041  0.83495345    -0.03200
C1100       C  0.60796027  0.57354659  0.80406524    -0.17600
H1101       H  0.57545486  0.58047474  0.76253393     0.20400
H1102       H  0.62304107  0.63132280  0.88518431     0.18800
H1103       H  0.59532150  0.65051174  0.86979379     0.18700
H1104       H  0.60061801  0.55946987  0.78183189     0.14600
C1105       C  0.56230474  0.40408359  0.96458012     0.30000
C1106       C  0.57334134  0.41317128  0.92404903    -0.36300
C1107       C  0.59299835  0.43310788  0.92771036     0.16000
C1108       C  0.60106659  0.44366245  0.96841303     0.21800
C1109       C  0.59062052  0.43399914  0.00918557    -0.34400
C1110       C  0.57113521  0.41385547  0.00556457     0.15900
O1111       O  0.54199506  0.38781747  0.96828928    -0.26500
C1112       C  0.53803946  0.38672574  0.01234610     0.05700
C1113       C  0.55567481  0.40231749  0.03720473    -0.31300
O1114       O  0.61697062  0.46409244  0.96320035    -0.23200
C1115       C  0.61952224  0.46635707  0.91868108    -0.03200
C1116       C  0.60529145  0.44750553  0.89504250    -0.17600
H1117       H  0.56621524  0.40613571  0.89164130     0.20400
H1118       H  0.59628718  0.44243144  0.04114928     0.18800
H1119       H  0.55601511  0.40627757  0.07262933     0.18700
H1120       H  0.60247541  0.44569735  0.85898341     0.14600
C1121       C  0.54641268  0.43971202  0.66205438     0.30000
C1122       C  0.56737787  0.45830734  0.66142092    -0.36300
C1123       C  0.57597914  0.46785746  0.70351401     0.16000
C1124       C  0.56451662  0.45991410  0.74329838     0.21800
C1125       C  0.54360159  0.44134753  0.74392291    -0.34400
C1126       C  0.53521436  0.43153024  0.70202944     0.15900
O1127       O  0.53597424  0.42721405  0.62717070    -0.26500
C1128       C  0.51802714  0.41072478  0.64517493     0.05700
C1129       C  0.51668813  0.41251041  0.69160544    -0.31300
O1130       O  0.57601080  0.47061303  0.77895472    -0.23200
C1131       C  0.59517289  0.48548279  0.76197042    -0.03200
C1132       C  0.59614945  0.48456163  0.71517581    -0.17600
H1133       H  0.57666736  0.46435653  0.63052040     0.20400
H1134       H  0.53485960  0.43451278  0.77511871     0.18800
H1135       H  0.50430812  0.40102699  0.71445241     0.18700
H1136       H  0.60991641  0.49426724  0.69324046     0.14600
C1137       C  0.77092282  0.52511578  0.37504761     0.30000
C1138       C  0.74989816  0.51387885  0.35639447    -0.36300
C1139       C  0.73762219  0.52440868  0.35979335     0.16000
C1140       C  0.74536250  0.54445762  0.38069252     0.21800
C1141       C  0.76641795  0.55573054  0.39918524    -0.34400
C1142       C  0.77881631  0.54535781  0.39517275     0.15900
O1143       O  0.78516905  0.51829105  0.37580713    -0.26500
C1144       C  0.80248228  0.53448856  0.39621619     0.05700
C1145       C  0.79950512  0.55178910  0.40889030    -0.31300
O1146       O  0.73106803  0.55122601  0.38021375    -0.23200
C1147       C  0.71405564  0.53542128  0.35828039    -0.03200
C1148       C  0.71719476  0.51831309  0.34479221    -0.17600
H1149       H  0.74359865  0.49809295  0.34018883     0.20400
H1150       H  0.77273340  0.57153471  0.41532580     0.18800
H1151       H  0.81079690  0.56670902  0.42638912     0.18700
H1152       H  0.70600901  0.50352874  0.32676946     0.14600
C1153       C  0.60449246  0.59462956  0.36597815     0.30000
C1154       C  0.58733208  0.59716802  0.38213527    -0.36300
C1155       C  0.58483828  0.61360332  0.36184145     0.16000
C1156       C  0.59837555  0.62693454  0.32804689     0.21800
C1157       C  0.61568836  0.62435700  0.31166485    -0.34400
C1158       C  0.61810715  0.60764548  0.33191032     0.15900
O1159       O  0.60911278  0.57973054  0.37962902    -0.26500
C1160       C  0.62592741  0.58299872  0.35413831     0.05700
C1161       C  0.63231436  0.60017971  0.32362601    -0.31300
O1162       O  0.59217123  0.64059661  0.31278439    -0.23200
C1163       C  0.57441442  0.63569007  0.33715694    -0.03200
C1164       C  0.56918390  0.61904943  0.36804002    -0.17600
H1165       H  0.57634677  0.58668494  0.40817233     0.20400
H1166       H  0.62618914  0.63431344  0.28451024     0.18800
H1167       H  0.64524941  0.60605358  0.29876592     0.18700
H1168       H  0.55530650  0.61149137  0.39064913     0.14600
C1169       C  0.58954211  0.42913054  0.41184105     0.30000
C1170       C  0.56874051  0.41098993  0.40421437    -0.36300
C1171       C  0.55786220  0.39841321  0.44215990     0.16000
C1172       C  0.56711493  0.40299313  0.48461535     0.21800
C1173       C  0.58815743  0.42087918  0.49205865    -0.34400
C1174       C  0.59880914  0.43385249  0.45428185     0.15900
O1175       O  0.60023837  0.44532952  0.38330940    -0.26500
C1176       C  0.61669514  0.46063906  0.40730532     0.05700
C1177       C  0.61662147  0.45442964  0.45182499    -0.31300
O1178       O  0.55285887  0.39153527  0.51634095    -0.23200
C1179       C  0.53419691  0.37962468  0.49412590    -0.03200
C1180       C  0.53638262  0.38311177  0.44777872    -0.17600
H1181       H  0.56071128  0.40821413  0.37183401     0.20400
H1182       H  0.59483226  0.42559895  0.52571767     0.18800
H1183       H  0.62638906  0.46463515  0.47955020     0.18700
H1184       H  0.52356708  0.37712064  0.42266527     0.14600
C1185       C  0.67425450  0.56721209  0.56180015     0.30000
C1186       C  0.67437915  0.57760436  0.60253206    -0.36300
C1187       C  0.67821808  0.56900159  0.64199614     0.16000
C1188       C  0.68195382  0.55159853  0.64108039     0.21800
C1189       C  0.68206930  0.54143102  0.60060279    -0.34400
C1190       C  0.67791640  0.54975658  0.56151491     0.15900
O1191       O  0.66862615  0.57081695  0.52155373    -0.26500
C1192       C  0.66865657  0.55538289  0.49561725     0.05700
C1193       C  0.67426424  0.54185948  0.51871915    -0.31300
O1194       O  0.68302029  0.54470280  0.68160667    -0.23200
C1195       C  0.67996607  0.55776686  0.70926677    -0.03200
C1196       C  0.67698334  0.57334375  0.68660613    -0.17600
H1197       H  0.67057120  0.59065220  0.60362554     0.20400
H1198       H  0.68401048  0.52716975  0.59992581     0.18800
H1199       H  0.67430087  0.52744543  0.50626858     0.18700
H1200       H  0.67298635  0.58504790  0.70078175     0.14600
C1201       C  0.65485160  0.55535492  0.06059643     0.30000
C1202       C  0.64269573  0.54970651  0.10045274    -0.36300
C1203       C  0.65452411  0.55373795  0.14041163     0.16000
C1204       C  0.67691903  0.56284742  0.14168146     0.21800
C1205       C  0.68922245  0.56868290  0.10140516    -0.34400
C1206       C  0.67725904  0.56447653  0.06097257     0.15900
O1207       O  0.64665300  0.55157732  0.01966666    -0.26500
C1208       C  0.66389581  0.55834292  0.99287105     0.05700
C1209       C  0.68348829  0.56656531  0.01659845    -0.31300
O1210       O  0.68414025  0.56318857  0.18312695    -0.23200
C1211       C  0.66600068  0.55415082  0.20811129    -0.03200
C1212       C  0.64724835  0.54807116  0.18320171    -0.17600
H1213       H  0.62505877  0.54187053  0.10022609     0.20400
H1214       H  0.70669552  0.57519496  0.10147647     0.18800
H1215       H  0.69971726  0.57240805  0.00320685     0.18700
H1216       H  0.63046345  0.53935284  0.19470327     0.14600
C1217       C  0.55323837  0.46090213  0.26487066     0.30000
C1218       C  0.53543938  0.43947447  0.26327964    -0.36300
C1219       C  0.52724298  0.43121413  0.22023887     0.16000
C1220       C  0.53579899  0.44327970  0.18135925     0.21800
C1221       C  0.55351522  0.46478947  0.18296544    -0.34400
C1222       C  0.56183728  0.47300466  0.22603739     0.15900
O1223       O  0.56522711  0.47059309  0.30073534    -0.26500
C1224       C  0.58154041  0.48928798  0.28494970     0.05700
C1225       C  0.58035398  0.49162259  0.23865700    -0.31300
O1226       O  0.52671560  0.43173586  0.14454793    -0.23200
C1227       C  0.51222185  0.41201806  0.16007614    -0.03200
C1228       C  0.51182646  0.41074673  0.20691193    -0.17600
H1229       H  0.52921841  0.42950454  0.29329482     0.20400
H1230       H  0.56100291  0.47404916  0.15260863     0.18800
H1231       H  0.59255483  0.50405551  0.21692364     0.18700
H1232       H  0.50225927  0.39654885  0.22791914     0.14600
C1233       C  0.52000320  0.78200021  0.80710953     0.30000
C1234       C  0.50947056  0.76122906  0.82753397    -0.36300
C1235       C  0.51971881  0.74866569  0.82258600     0.16000
C1236       C  0.53890042  0.75592623  0.79878584     0.21800
C1237       C  0.54958369  0.77681726  0.77891984    -0.34400
C1238       C  0.53946803  0.78947587  0.78427547     0.15900
O1239       O  0.51304798  0.79623524  0.80654601    -0.26500
C1240       C  0.52842523  0.81322284  0.78360764     0.05700
C1241       C  0.54528966  0.80993471  0.76908144    -0.31300
O1242       O  0.54513438  0.74113725  0.79677808    -0.23200
C1243       C  0.52985366  0.72419693  0.81996042    -0.03200
C1244       C  0.51369963  0.72804275  0.83698433    -0.17600
H1245       H  0.49422157  0.75518528  0.84562102     0.20400
H1246       H  0.56464006  0.78271561  0.76018287     0.18800
H1247       H  0.55950351  0.82084567  0.74931943     0.18700
H1248       H  0.49931103  0.71700682  0.85616283     0.14600
C1249       C  0.53901400  0.76048979  0.29395667     0.30000
C1250       C  0.55182967  0.78335173  0.28917125    -0.36300
C1251       C  0.54037542  0.79474925  0.28452418     0.16000
C1252       C  0.51786812  0.78436170  0.28477278     0.21800
C1253       C  0.50508084  0.76154893  0.28947514    -0.34400
C1254       C  0.51651337  0.75016844  0.29384294     0.15900
O1255       O  0.54624433  0.74662998  0.29954961    -0.26500
C1256       C  0.52811489  0.72714857  0.30273110     0.05700
C1257       C  0.50915575  0.72841144  0.29934254    -0.31300
O1258       O  0.51051092  0.79810248  0.27976116    -0.23200
C1259       C  0.52850788  0.81761873  0.27611884    -0.03200
C1260       C  0.54759843  0.81653246  0.27888033    -0.17600
H1261       H  0.56948956  0.79167298  0.28913459     0.20400
H1262       H  0.48742071  0.75323759  0.28967288     0.18800
H1263       H  0.49238281  0.71524624  0.30170491     0.18700
H1264       H  0.56431606  0.82982251  0.27667867     0.14600
C1265       C  0.54640778  0.87016491  0.56102903     0.30000
C1266       C  0.54231393  0.85960402  0.51893634    -0.36300
C1267       C  0.54654938  0.87293042  0.48080682     0.16000
C1268       C  0.55390532  0.89506584  0.48389650     0.21800
C1269       C  0.55872363  0.90575065  0.52591713    -0.34400
C1270       C  0.55484624  0.89249239  0.56401341     0.15900
O1271       O  0.54143623  0.86056464  0.60093911    -0.26500
C1272       C  0.54725745  0.87701935  0.62995715     0.05700
C1273       C  0.55591740  0.89728001  0.60888250    -0.31300
O1274       O  0.55434028  0.90387559  0.44435104    -0.23200
C1275       C  0.54773405  0.88728787  0.41540291    -0.03200
C1276       C  0.54284480  0.86768963  0.43612428    -0.17600
H1277       H  0.53541464  0.84206959  0.51615342     0.20400
H1278       H  0.56422412  0.92303457  0.52882392     0.18800
H1279       H  0.56061484  0.91296286  0.62422046     0.18700
H1280       H  0.53612628  0.85165751  0.42080317     0.14600
C1281       C  0.55716076  0.89742644  0.98236583     0.30000
C1282       C  0.56068485  0.90904642  0.02296936    -0.36300
C1283       C  0.55860998  0.89738697  0.06271636     0.16000
C1284       C  0.55306370  0.87565017  0.06245462     0.21800
C1285       C  0.55036027  0.86427899  0.02180382    -0.34400
C1286       C  0.55274899  0.87603767  0.98204925     0.15900
O1287       O  0.55576418  0.90431044  0.94183468    -0.26500
C1288       C  0.55093401  0.88731568  0.91502640     0.05700
C1289       C  0.54906395  0.86932808  0.93811097    -0.31300
O1290       O  0.54863693  0.86700444  0.10320364    -0.23200
C1291       C  0.55194627  0.88353401  0.13008135    -0.03200
C1292       C  0.55842808  0.90292020  0.10681513    -0.17600
H1293       H  0.56364108  0.92564351  0.02362425     0.20400
H1294       H  0.54550940  0.84710183  0.02125184     0.18800
H1295       H  0.54399281  0.85316016  0.92492569     0.18700
H1296       H  0.56047944  0.91815676  0.11998171     0.14600
C1297       C  0.74847991  0.21412745  0.71856864     0.30000
C1298       C  0.77128056  0.22384543  0.71471004    -0.36300
C1299       C  0.78298397  0.24675787  0.71042414     0.16000
C1300       C  0.77290498  0.25917807  0.71004156     0.21800
C1301       C  0.75017357  0.24947792  0.71341042    -0.34400
C1302       C  0.73852380  0.22665410  0.71757385     0.15900
O1303       O  0.73433702  0.19308376  0.72424665    -0.26500
C1304       C  0.71511987  0.19221280  0.72663738     0.05700
C1305       C  0.71677034  0.21260141  0.72247975    -0.31300
O1306       O  0.78686931  0.28027429  0.70603750    -0.23200
C1307       C  0.80621993  0.28150723  0.70368498    -0.03200
C1308       C  0.80483622  0.26114725  0.70612460    -0.17600
H1309       H  0.77933283  0.21425283  0.71537835     0.20400
H1310       H  0.74213392  0.25908685  0.71309802     0.18800
H1311       H  0.70383619  0.21653568  0.72395584     0.18700
H1312       H  0.81797018  0.25750823  0.70461951     0.14600
C1313       C  0.59257155  0.98234022  0.76056164     0.30000
C1314       C  0.61324948  0.00143247  0.75669061    -0.36300
C1315       C  0.61323404  0.02124928  0.75054520     0.16000
C1316       C  0.59417527  0.02206806  0.74863369     0.21800
C1317       C  0.57369624  0.00315039  0.75233762    -0.34400
C1318       C  0.57373141  0.98352769  0.75821372     0.15900
O1319       O  0.58842997  0.96197085  0.76647373    -0.26500
C1320       C  0.56664569  0.95015184  0.76764891     0.05700
C1321       C  0.55680662  0.96281657  0.76267499    -0.31300
O1322       O  0.59764323  0.04203993  0.74300146    -0.23200
C1323       C  0.61924986  0.05446152  0.74107350    -0.03200
C1324       C  0.62990126  0.04243092  0.74545606    -0.17600
H1325       H  0.62823999  0.00088650  0.75830221     0.20400
H1326       H  0.55870047  0.00369649  0.75069881     0.18800
H1327       H  0.53955255  0.95749040  0.76258413     0.18700
H1328       H  0.64728068  0.04840615  0.74502397     0.14600
C1329       C  0.78800367  0.25297873  0.21309853     0.30000
C1330       C  0.77814978  0.23126667  0.22859691    -0.36300
C1331       C  0.75528513  0.21892159  0.22511209     0.16000
C1332       C  0.74300477  0.22749943  0.20819672     0.21800
C1333       C  0.75284893  0.24909874  0.19243372    -0.34400
C1334       C  0.77567152  0.26130124  0.19526650     0.15900
O1335       O  0.80909216  0.26749835  0.21324830    -0.26500
C1336       C  0.81025015  0.28521682  0.19468359     0.05700
C1337       C  0.78996168  0.28227921  0.18278622    -0.31300
O1338       O  0.72188338  0.21335552  0.20911333    -0.23200
C1339       C  0.72052038  0.19533683  0.22635477    -0.03200
C1340       C  0.74080577  0.19779012  0.23685338    -0.17600
H1341       H  0.78763301  0.22448670  0.24238302     0.20400
H1342       H  0.74335496  0.25591824  0.17888483     0.18800
H1343       H  0.78628885  0.29401242  0.16772405     0.18700
H1344       H  0.74429899  0.18591889  0.25183892     0.14600
C1345       C  0.57631036  0.98781102  0.27147608     0.30000
C1346       C  0.57514060  0.00702085  0.27112479    -0.36300
C1347       C  0.59476550  0.02646723  0.26317759     0.16000
C1348       C  0.61437854  0.02719176  0.25594699     0.21800
C1349       C  0.61561647  0.00786654  0.25693314    -0.34400
C1350       C  0.59584426  0.98825282  0.26501018     0.15900
O1351       O  0.55967634  0.96784536  0.27676189    -0.26500
C1352       C  0.56848978  0.95509993  0.27405236     0.05700
C1353       C  0.59101930  0.96689159  0.26696156    -0.31300
O1354       O  0.63047627  0.04728856  0.24707397    -0.23200
C1355       C  0.62088504  0.05943393  0.24882646    -0.03200
C1356       C  0.59874659  0.04727088  0.25896571    -0.17600
H1357       H  0.55985299  0.00677468  0.27590136     0.20400
H1358       H  0.63080118  0.00805200  0.25104163     0.18800
H1359       H  0.60208229  0.96061310  0.26297018     0.18700
H1360       H  0.58709738  0.05290026  0.26163335     0.14600
C1361       C  0.66492831  0.11620121  0.94348936     0.30000
C1362       C  0.65482341  0.10257845  0.98074674    -0.36300
C1363       C  0.66191464  0.11223170  0.02339416     0.16000
C1364       C  0.67814032  0.13373824  0.02923701     0.21800
C1365       C  0.68810900  0.14746396  0.99192106    -0.34400
C1366       C  0.68072242  0.13789155  0.94918918     0.15900
O1367       O  0.65973720  0.11090513  0.90069988    -0.26500
C1368       C  0.67220424  0.12948515  0.87861928     0.05700
C1369       C  0.68548538  0.14685154  0.90708691    -0.31300
O1370       O  0.68139394  0.13960427  0.07221295    -0.23200
C1371       C  0.66691213  0.12165170  0.09404640    -0.03200
C1372       C  0.65430579  0.10419754  0.06533208    -0.17600
H1373       H  0.64177273  0.08581448  0.97676379     0.20400
H1374       H  0.70020041  0.16459593  0.99593191     0.18800
H1375       H  0.69639155  0.16378812  0.89812548     0.18700
H1376       H  0.64084820  0.08819838  0.07406386     0.14600
C1377       C  0.66700944  0.11768062  0.44238621     0.30000
C1378       C  0.65681191  0.10291229  0.47798759    -0.36300
C1379       C  0.66266134  0.11163250  0.52166695     0.16000
C1380       C  0.67785244  0.13330645  0.52987717     0.21800
C1381       C  0.68789720  0.14812783  0.49425969    -0.34400
C1382       C  0.68171310  0.13949779  0.45055859     0.15900
O1383       O  0.66287071  0.11333959  0.39901214    -0.26500
C1384       C  0.67489050  0.13266139  0.37914003     0.05700
C1385       C  0.68685357  0.14955301  0.40955906    -0.31300
O1386       O  0.67998627  0.13818570  0.57328769    -0.23200
C1387       C  0.66581836  0.11945146  0.59306939    -0.03200
C1388       C  0.65450634  0.10241369  0.56260730    -0.17600
H1389       H  0.64456313  0.08598521  0.47203855     0.20400
H1390       H  0.69912012  0.16534767  0.50022451     0.18800
H1391       H  0.69719836  0.16682248  0.40253580     0.18700
H1392       H  0.64148630  0.08592326  0.56955173     0.14600
C1393       C  0.47172271  0.22390982  0.53835030     0.30000
C1394       C  0.48481590  0.24665086  0.54370281    -0.36300
C1395       C  0.47373431  0.25833547  0.54902167     0.16000
C1396       C  0.45126426  0.24841557  0.54942152     0.21800
C1397       C  0.43811661  0.22557825  0.54390371    -0.34400
C1398       C  0.44923619  0.21384225  0.53830791     0.15900
O1399       O  0.47878423  0.20997972  0.53228219    -0.26500
C1400       C  0.46063501  0.19061994  0.52811357     0.05700
C1401       C  0.44171386  0.19201378  0.53160713    -0.31300
O1402       O  0.44445216  0.26264023  0.55552071    -0.23200
C1403       C  0.46285982  0.28191804  0.55881453    -0.03200
C1404       C  0.48151561  0.28013388  0.55487368    -0.17600
H1405       H  0.50246415  0.25470574  0.54357136     0.20400
H1406       H  0.42047181  0.21752975  0.54389179     0.18800
H1407       H  0.42492307  0.17890759  0.52911677     0.18700
H1408       H  0.49841830  0.29305752  0.55665447     0.14600
C1409       C  0.56189978  0.11912235  0.33320694     0.30000
C1410       C  0.54160614  0.11813771  0.33201885    -0.36300
C1411       C  0.53172600  0.11653604  0.37397818     0.16000
C1412       C  0.54101291  0.11555915  0.41419553     0.21800
C1413       C  0.56130413  0.11659239  0.41535301    -0.34400
C1414       C  0.57137282  0.11862952  0.37353133     0.15900
O1415       O  0.57457446  0.12192525  0.29828978    -0.26500
C1416       C  0.59245682  0.12349705  0.31657810     0.05700
C1417       C  0.59144912  0.12164280  0.36326977    -0.31300
O1418       O  0.52976075  0.11559210  0.44957069    -0.23200
C1419       C  0.51314460  0.11679732  0.43194483    -0.03200
C1420       C  0.51347424  0.11740531  0.38500946    -0.17600
H1421       H  0.53443782  0.11937309  0.30073699     0.20400
H1422       H  0.56909600  0.11669746  0.44681091     0.18800
H1423       H  0.60386277  0.12280647  0.38623314     0.18700
H1424       H  0.50257166  0.11942546  0.36255554     0.14600
C1425       C  0.56631589  0.16986559  0.58509455     0.30000
C1426       C  0.58575970  0.16966998  0.57679795    -0.36300
C1427       C  0.59719827  0.16927912  0.61502771     0.16000
C1428       C  0.59029426  0.16978692  0.65839477     0.21800
C1429       C  0.57094578  0.17007516  0.66667443    -0.34400
C1430       C  0.55919287  0.16979009  0.62853554     0.15900
O1431       O  0.55147022  0.16671151  0.55467595    -0.26500
C1432       C  0.53458076  0.16436702  0.57890103     0.05700
C1433       C  0.53845777  0.16613838  0.62506429    -0.31300
O1434       O  0.60179579  0.16660098  0.68903923    -0.23200
C1435       C  0.61607769  0.16369139  0.66524563    -0.03200
C1436       C  0.61404827  0.16520031  0.61892502    -0.17600
H1437       H  0.59066473  0.16812956  0.54300330     0.20400
H1438       H  0.56462107  0.16881857  0.70049353     0.18800
H1439       H  0.52696619  0.16305746  0.65210351     0.18700
H1440       H  0.62240284  0.16185039  0.59217270     0.14600
C1441       C  0.47586452  0.26344519  0.05390490     0.30000
C1442       C  0.48848355  0.25320867  0.05320875    -0.36300
C1443       C  0.47714671  0.23064512  0.04440359     0.16000
C1444       C  0.45493611  0.21892789  0.03659946     0.21800
C1445       C  0.44230995  0.22917718  0.03735314    -0.34400
C1446       C  0.45362867  0.25173849  0.04640010     0.15900
O1447       O  0.48303968  0.28431558  0.06225743    -0.26500
C1448       C  0.46515096  0.28599232  0.06039478     0.05700
C1449       C  0.44637094  0.26625552  0.05053958    -0.31300
O1450       O  0.44780063  0.19804099  0.02819473    -0.23200
C1451       C  0.46568917  0.19638175  0.03066344    -0.03200
C1452       C  0.48440139  0.21614204  0.04082272    -0.17600
H1453       H  0.50591120  0.26219689  0.05922089     0.20400
H1454       H  0.42488046  0.22018707  0.03138202     0.18800
H1455       H  0.42978746  0.26305418  0.04744957     0.18700
H1456       H  0.50099542  0.21940090  0.04419933     0.14600
C1457       C  0.53064228  0.11783743  0.87560861     0.30000
C1458       C  0.53861153  0.11868631  0.83188136    -0.36300
C1459       C  0.55742732  0.11689986  0.82882166     0.16000
C1460       C  0.56790593  0.11487757  0.86622001     0.21800
C1461       C  0.55969647  0.11358424  0.90971942    -0.34400
C1462       C  0.54071617  0.11496208  0.91270261     0.15900
O1463       O  0.51428079  0.12080595  0.88691082    -0.26500
C1464       C  0.51374743  0.11938001  0.93167539     0.05700
C1465       C  0.52969915  0.11563508  0.94946786    -0.31300
O1466       O  0.58635203  0.11559034  0.85602134    -0.23200
C1467       C  0.58743912  0.11759043  0.81145191    -0.03200
C1468       C  0.56987107  0.11837107  0.79259410    -0.17600
H1469       H  0.53109733  0.12123654  0.80251750     0.20400
H1470       H  0.56792115  0.11229677  0.93930436     0.18800
H1471       H  0.53349674  0.11495611  0.98458871     0.18700
H1472       H  0.56742713  0.12108674  0.75768344     0.14600
C1473       C  0.56162539  0.17243612  0.12529650     0.30000
C1474       C  0.57259743  0.17355249  0.16535881    -0.36300
C1475       C  0.59252616  0.17401933  0.16051660     0.16000
C1476       C  0.60091262  0.17288606  0.11913790     0.21800
C1477       C  0.59040704  0.17275732  0.07890491    -0.34400
C1478       C  0.57065804  0.17276771  0.08374297     0.15900
O1479       O  0.54134527  0.16843879  0.12225418    -0.26500
C1480       C  0.53755184  0.16685457  0.07811967     0.05700
C1481       C  0.55529914  0.16967190  0.05252565    -0.31300
O1482       O  0.61744766  0.16926173  0.12294397    -0.23200
C1483       C  0.62006760  0.16883389  0.16733220    -0.03200
C1484       C  0.60518590  0.17197310  0.19218623    -0.17600
H1485       H  0.56537302  0.17256604  0.19812054     0.20400
H1486       H  0.59637700  0.17118184  0.04626597     0.18800
H1487       H  0.55583959  0.16723860  0.01656140     0.18700
H1488       H  0.60237106  0.17018316  0.22825407     0.14600
C1489       C  0.43793397  0.11274959  0.73107842     0.30000
C1490       C  0.43433218  0.10239720  0.77317008    -0.36300
C1491       C  0.43711517  0.11548068  0.81114047     0.16000
C1492       C  0.44358357  0.13740900  0.80798647     0.21800
C1493       C  0.44665163  0.14762424  0.76585507    -0.34400
C1494       C  0.44333301  0.13439432  0.72785105     0.15900
O1495       O  0.43766621  0.10404184  0.69142722    -0.26500
C1496       C  0.44238093  0.12015078  0.66234104     0.05700
C1497       C  0.44592817  0.13936597  0.68303935    -0.31300
O1498       O  0.44748287  0.14706292  0.84783442    -0.23200
C1499       C  0.44282844  0.13096417  0.87693925    -0.03200
C1500       C  0.43617798  0.11093659  0.85602625    -0.17600
H1501       H  0.43024156  0.08548612  0.77616641     0.20400
H1502       H  0.45187339  0.16483713  0.76292497     0.18800
H1503       H  0.45095911  0.15504620  0.66748896     0.18700
H1504       H  0.43279515  0.09568821  0.87154761     0.14600
C1505       C  0.43945677  0.13358442  0.30924165     0.30000
C1506       C  0.44252811  0.14497678  0.26867378    -0.36300
C1507       C  0.44071204  0.13331860  0.22901340     0.16000
C1508       C  0.43661743  0.11203702  0.22929556     0.21800
C1509       C  0.43295484  0.10043395  0.26985919    -0.34400
C1510       C  0.43433521  0.11197081  0.30954215     0.15900
O1511       O  0.44264715  0.14203395  0.35011118    -0.26500
C1512       C  0.43893324  0.12549394  0.37710758     0.05700
C1513       C  0.43353781  0.10630667  0.35379412    -0.31300
O1514       O  0.43791745  0.10509701  0.18865533    -0.23200
C1515       C  0.44238677  0.12197201  0.16193431    -0.03200
C1516       C  0.44414687  0.13992190  0.18512221    -0.17600
H1517       H  0.44689290  0.16202343  0.26814778     0.20400
H1518       H  0.43006215  0.08386128  0.27053157     0.18800
H1519       H  0.43135483  0.09110191  0.36726952     0.18700
H1520       H  0.44869747  0.15593040  0.17189698     0.14600
C1521       C  0.23920422  0.79343947  0.96607615     0.30000
C1522       C  0.21636784  0.78321687  0.96054428    -0.36300
C1523       C  0.20510145  0.76023416  0.95573170     0.16000
C1524       C  0.21562338  0.74824111  0.95644808     0.21800
C1525       C  0.23831970  0.75842123  0.96159225    -0.34400
C1526       C  0.24951193  0.78125020  0.96619327     0.15900
O1527       O  0.25305895  0.81461538  0.97237985    -0.26500
C1528       C  0.27244877  0.81586525  0.97632105     0.05700
C1529       C  0.27111048  0.79558814  0.97248875    -0.31300
O1530       O  0.20214058  0.72703907  0.95161337    -0.23200
C1531       C  0.18258232  0.72520334  0.94752548    -0.03200
C1532       C  0.18339705  0.74535679  0.94981669    -0.17600
H1533       H  0.20797165  0.79248037  0.96029114     0.20400
H1534       H  0.24669812  0.74913702  0.96216796     0.18800
H1535       H  0.28417592  0.79188506  0.97503268     0.18700
H1536       H  0.16999619  0.74855097  0.94728306     0.14600
C1537       C  0.37617221  0.98572039  0.00191252     0.30000
C1538       C  0.37456658  0.00455447  0.01056874    -0.36300
C1539       C  0.39442360  0.02471994  0.01099637     0.16000
C1540       C  0.41429861  0.02604941  0.00339332     0.21800
C1541       C  0.41589579  0.00740619  0.99513446    -0.34400
C1542       C  0.39625749  0.98747179  0.99486309     0.15900
O1543       O  0.35994203  0.96512120  0.99942593    -0.26500
C1544       C  0.37001992  0.95376240  0.99103309     0.05700
C1545       C  0.39255779  0.96692439  0.98801511    -0.31300
O1546       O  0.43082503  0.04620555  0.00528232    -0.23200
C1547       C  0.42170437  0.05828161  0.01424009    -0.03200
C1548       C  0.39900591  0.04582405  0.01825541    -0.17600
H1549       H  0.35900842  0.00357330  0.01648183     0.20400
H1550       H  0.43146664  0.00838522  0.98934295     0.18800
H1551       H  0.40454184  0.96201915  0.98131146     0.18700
H1552       H  0.38765907  0.05144888  0.02577783     0.14600
C1553       C  0.42967769  0.89679033  0.09147122     0.30000
C1554       C  0.45030482  0.89846684  0.09071425    -0.36300
C1555       C  0.45858414  0.89683563  0.13260239     0.16000
C1556       C  0.44754053  0.89424989  0.17262023     0.21800
C1557       C  0.42692928  0.89260814  0.17339109    -0.34400
C1558       C  0.41845953  0.89379513  0.13141236     0.15900
O1559       O  0.41806115  0.89581558  0.05589391    -0.26500
C1560       C  0.39908772  0.89196978  0.07316890     0.05700
C1561       C  0.39841808  0.89062227  0.12003343    -0.31300
O1562       O  0.45771849  0.89191099  0.20751363    -0.23200
C1563       C  0.47541219  0.89278344  0.18965444    -0.03200
C1564       C  0.47678236  0.89575667  0.14311804    -0.17600
H1565       H  0.45884812  0.89993920  0.05942916     0.20400
H1566       H  0.41773480  0.88965849  0.20434771     0.18800
H1567       H  0.38476921  0.88671689  0.14219670     0.18700
H1568       H  0.48897235  0.89624417  0.12027921     0.14600
C1569       C  0.39211811  0.83783823  0.87895183     0.30000
C1570       C  0.40244070  0.83710731  0.83909348    -0.36300
C1571       C  0.42176104  0.83638773  0.84446394     0.16000
C1572       C  0.43067580  0.83689958  0.88615885     0.21800
C1573       C  0.41984421  0.83666356  0.92604575    -0.34400
C1574       C  0.40025692  0.83689968  0.92067543     0.15900
O1575       O  0.37597427  0.84207945  0.88184422    -0.26500
C1576       C  0.37331510  0.84320141  0.92602214     0.05700
C1577       C  0.38777972  0.83981238  0.95173592    -0.31300
O1578       O  0.45073632  0.84016554  0.88318084    -0.23200
C1579       C  0.45437471  0.84100260  0.83895933    -0.03200
C1580       C  0.43681818  0.83852187  0.81336720    -0.17600
H1581       H  0.39665670  0.83854043  0.80620394     0.20400
H1582       H  0.42693833  0.83775685  0.95894624     0.18800
H1583       H  0.39042528  0.84187282  0.98782079     0.18700
H1584       H  0.43629607  0.84063262  0.77729824     0.14600
C1585       C  0.23811045  0.78995452  0.46808763     0.30000
C1586       C  0.21531236  0.78039978  0.46389376    -0.36300
C1587       C  0.20351319  0.75756768  0.45746310     0.16000
C1588       C  0.21351081  0.74509031  0.45543313     0.21800
C1589       C  0.23620860  0.75462353  0.45927060    -0.34400
C1590       C  0.24794516  0.77734304  0.46559041     0.15900
O1591       O  0.25236201  0.81088249  0.47531310    -0.26500
C1592       C  0.27152764  0.81158672  0.47726940     0.05700
C1593       C  0.26970207  0.79118974  0.47133868    -0.31300
O1594       O  0.19950561  0.72408134  0.44988083    -0.23200
C1595       C  0.18018145  0.72292221  0.44815399    -0.03200
C1596       C  0.18163731  0.74327974  0.45255165    -0.17600
H1597       H  0.20733297  0.79004209  0.46585637     0.20400
H1598       H  0.24416643  0.74494781  0.45776585     0.18800
H1599       H  0.28254265  0.78710988  0.47199703     0.18700
H1600       H  0.16852373  0.74696328  0.45228081     0.14600
C1601       C  0.39553323  0.02082437  0.51399881     0.30000
C1602       C  0.37503949  0.00199491  0.50625987    -0.36300
C1603       C  0.37476894  0.98188864  0.50504365     0.16000
C1604       C  0.39335629  0.98052656  0.51153123     0.21800
C1605       C  0.41365578  0.99918165  0.51950136    -0.34400
C1606       C  0.41395227  0.01913606  0.52011285     0.15900
O1607       O  0.39997018  0.04144438  0.51476878    -0.26500
C1608       C  0.42154150  0.05293914  0.52097992     0.05700
C1609       C  0.43095532  0.03982483  0.52463993    -0.31300
O1610       O  0.38977538  0.96042357  0.50766202    -0.23200
C1611       C  0.36859148  0.94850635  0.49843788    -0.03200
C1612       C  0.35831355  0.96095806  0.49645016    -0.17600
H1613       H  0.36046323  0.00298895  0.50061022     0.20400
H1614       H  0.42834605  0.99824707  0.52385699     0.18800
H1615       H  0.44800027  0.04487559  0.52947846     0.18700
H1616       H  0.34138104  0.95546767  0.48892844     0.14600
C1617       C  0.44593452  0.88815609  0.67651840     0.30000
C1618       C  0.42563013  0.88718372  0.67764962    -0.36300
C1619       C  0.41678945  0.88764004  0.63562743     0.16000
C1620       C  0.42743583  0.88936247  0.59543384     0.21800
C1621       C  0.44766227  0.89027204  0.59431874    -0.34400
C1622       C  0.45628490  0.88938893  0.63618453     0.15900
O1623       O  0.45643254  0.88639840  0.71144917    -0.26500
C1624       C  0.47355842  0.88627117  0.69315217     0.05700
C1625       C  0.47430062  0.88803873  0.64644918    -0.31300
O1626       O  0.41576468  0.88828786  0.56003843    -0.23200
C1627       C  0.39730298  0.88563462  0.57759635    -0.03200
C1628       C  0.39695722  0.88510140  0.62452802    -0.17600
H1629       H  0.41696711  0.88534588  0.70894383     0.20400
H1630       H  0.45569454  0.89075731  0.56287028     0.18800
H1631       H  0.48596179  0.88758394  0.62342620     0.18700
H1632       H  0.38372425  0.88234155  0.64694846     0.14600
C1633       C  0.32285898  0.89123010  0.69348570     0.30000
C1634       C  0.33438117  0.90539065  0.72927369    -0.36300
C1635       C  0.32780003  0.89685620  0.77285037     0.16000
C1636       C  0.31068562  0.87598520  0.78084195     0.21800
C1637       C  0.29922563  0.86176365  0.74500841    -0.34400
C1638       C  0.30616304  0.87012902  0.70136870     0.15900
O1639       O  0.32757373  0.89521947  0.65021624    -0.26500
C1640       C  0.31390030  0.87637714  0.63007280     0.05700
C1641       C  0.30027216  0.86013919  0.66023244    -0.31300
O1642       O  0.30816941  0.87096874  0.82418461    -0.23200
C1643       C  0.32405931  0.88875768  0.84410783    -0.03200
C1644       C  0.33680221  0.90534128  0.81380570    -0.17600
H1645       H  0.34817434  0.92159261  0.72350907     0.20400
H1646       H  0.28646347  0.84502876  0.75075152     0.18800
H1647       H  0.28852535  0.84318022  0.65302960     0.18700
H1648       H  0.35116296  0.92100219  0.82083380     0.14600
C1649       C  0.33178155  0.89444834  0.27728061     0.30000
C1650       C  0.34061534  0.90520470  0.23619436    -0.36300
C1651       C  0.32909906  0.89426435  0.19706524     0.16000
C1652       C  0.31052429  0.87386547  0.19825957     0.21800
C1653       C  0.30148045  0.86331824  0.23935584    -0.34400
C1654       C  0.31268070  0.87448973  0.27850867     0.15900
O1655       O  0.34040313  0.90115068  0.31772213    -0.26500
C1656       C  0.32639565  0.88550615  0.34530947     0.05700
C1657       C  0.30877956  0.86856132  0.32279137    -0.31300
O1658       O  0.30366462  0.86562878  0.15760794    -0.23200
C1659       C  0.31759753  0.88122168  0.12992799    -0.03200
C1660       C  0.33374181  0.89945695  0.15256013    -0.17600
H1661       H  0.35566842  0.92077764  0.23476917     0.20400
H1662       H  0.28700982  0.84726157  0.24065755     0.18800
H1663       H  0.29561277  0.85359104  0.33682990     0.18700
H1664       H  0.34779708  0.91362864  0.13830473     0.14600
C1665       C  0.43057562  0.83527609  0.38239452     0.30000
C1666       C  0.41998261  0.83408641  0.42326569    -0.36300
C1667       C  0.39969531  0.83303256  0.41982552     0.16000
C1668       C  0.39060922  0.83347267  0.37893074     0.21800
C1669       C  0.40066025  0.83351045  0.33807002    -0.34400
C1670       C  0.42079659  0.83427657  0.34150514     0.15900
O1671       O  0.45120033  0.84048599  0.37786178    -0.26500
C1672       C  0.45445869  0.84222437  0.33346343     0.05700
C1673       C  0.43600562  0.83821331  0.30921699    -0.31300
O1674       O  0.37413804  0.83710942  0.38351835    -0.23200
C1675       C  0.37221911  0.83835732  0.42792933    -0.03200
C1676       C  0.38748212  0.83560394  0.45217603    -0.17600
H1677       H  0.42784896  0.83578340  0.45549835     0.20400
H1678       H  0.39418452  0.83479702  0.30589433     0.18800
H1679       H  0.43487440  0.84067669  0.27349808     0.18700
H1680       H  0.39095018  0.83818454  0.48794796     0.14600
loop_ 
_geom_bond_atom_site_label_1 
_geom_bond_atom_site_label_2 
_geom_bond_distance 
_geom_bond_site_symmetry_2 
_ccdc_geom_bond_type 
O1          Cr19   1.989       .  S
O1            C9   1.263       .  A
O2          Cr19   2.028       .  S
O2            C3   1.271       .  A
C3            O4   1.262       .  A
C3         C1592   1.475       .  S
O4          Cr20   1.972       .  S
O5          Cr20   2.017       .  S
O5            C6   1.266       .  A
C6            O7   1.259       .  A
C6         C1675   1.468       .  S
O7          Cr21   1.981       .  S
O8          Cr21   2.010       .  S
O8            C9   1.265       .  A
C9         C1656   1.473       .  S
O10         Cr19   2.027       .  S
O10          C18   1.269       .  A
O11         Cr19   1.990       .  S
O11          C12   1.260       .  A
C12          O13   1.263       .  A
C12        C1640   1.469       .  S
O13         Cr20   2.010       .  S
O14         Cr20   1.980       .  S
O14          C15   1.261       .  A
C15          O16   1.266       .  A
C15        C1627   1.464       .  S
O16         Cr21   2.011       .  S
O17         Cr21   1.968       .  S
O17          C18   1.258       .  A
C18        C1611   1.474       .  S
Cr19         O22   1.768       .  S
Cr20         O22   1.770       .  S
Cr21         O22   1.764       .  S
O23         Cr41   1.988       .  S
O23          C31   1.261       .  A
O24         Cr41   2.039       .  S
O24          C25   1.274       .  A
C25          O26   1.263       .  A
C25        C1528   1.482       .  S
O26         Cr42   1.971   1_556  S
O27         Cr42   2.008   1_556  S
O27          C28   1.263       .  A
C28          O29   1.258       .  A
C28        C1576   1.468       .  S
O29         Cr43   1.984       .  S
O30         Cr43   2.010       .  S
O30          C31   1.266       .  A
C31        C1643   1.472       .  S
O32         Cr41   2.033       .  S
O32          C40   1.269       .  A
O33         Cr41   1.995   1_554  S
O33          C34   1.260       .  A
C34          O35   1.260       .  A
C34        C1659   1.468       .  S
O35         Cr42   2.004       .  S
O36         Cr42   1.980       .  S
O36          C37   1.263       .  A
C37          O38   1.269       .  A
C37        C1560   1.470       .  S
O38         Cr43   2.019   1_554  S
O39         Cr43   1.962       .  S
O39          C40   1.258       .  A
C40        C1544   1.479       .  S
Cr41         O44   1.772       .  S
Cr42         O44   1.769   1_554  S
Cr43         O44   1.766       .  S
O45         Cr63   1.986       .  S
O45          C53   1.262       .  A
O46         Cr63   2.029       .  S
O46          C47   1.272       .  A
C47          O48   1.260       .  A
C47        C1451   1.471       .  S
O48         Cr64   1.968   1_554  S
O49         Cr64   2.009   1_554  S
O49          C50   1.264       .  A
C50          O51   1.260       .  A
C50        C1480   1.468       .  S
O51         Cr65   1.985       .  S
O52         Cr65   2.009       .  S
O52          C53   1.265       .  A
C53        C1515   1.469       .  S
O54         Cr63   2.030       .  S
O54          C62   1.269       .  A
O55         Cr63   1.992   1_556  S
O55          C56   1.261       .  A
C56          O57   1.262       .  A
C56        C1499   1.470       .  S
O57         Cr64   2.008       .  S
O58         Cr64   1.975       .  S
O58          C59   1.260       .  A
C59          O60   1.267   1_556  A
C59        C1464   1.459       .  S
O60         Cr65   2.004       .  S
O61         Cr65   1.966       .  S
O61          C62   1.257       .  A
C62        C1547   1.475       .  S
Cr63         O66   1.768       .  S
Cr64         O66   1.771   1_556  S
Cr65         O66   1.762       .  S
O67         Cr85   1.984       .  S
O67          C75   1.261       .  A
O68         Cr85   2.034       .  S
O68          C69   1.274       .  A
C69          O70   1.262       .  A
C69        C1400   1.479       .  S
O70         Cr86   1.974       .  S
O71         Cr86   2.014       .  S
O71          C72   1.263       .  A
C72          O73   1.257       .  A
C72        C1432   1.463       .  S
O73         Cr87   1.975       .  S
O74         Cr87   2.012       .  S
O74          C75   1.265       .  A
C75        C1496   1.470       .  S
O76         Cr85   2.034       .  S
O76          C84   1.270       .  A
O77         Cr85   1.995       .  S
O77          C78   1.262       .  A
C78          O79   1.262       .  A
C78        C1512   1.467       .  S
O79         Cr86   2.004       .  S
O80         Cr86   1.976       .  S
O80          C81   1.261       .  A
C81          O82   1.269       .  A
C81        C1419   1.466       .  S
O82         Cr87   2.019       .  S
O83         Cr87   1.961       .  S
O83          C84   1.257       .  A
C84        C1608   1.478       .  S
Cr85         O88   1.766       .  S
Cr86         O88   1.769       .  S
Cr87         O88   1.764       .  S
O89        Cr107   1.994       .  S
O89          C97   1.262       .  A
O90        Cr107   2.028       .  S
O90          C91   1.271       .  A
C91          O92   1.260       .  A
C91        C1339   1.472       .  S
O92        Cr108   1.972       .  S
O93        Cr108   2.010       .  S
O93          C94   1.266       .  A
C94          O95   1.259       .  A
C94        C1483   1.467       .  S
O95        Cr109   1.982       .  S
O96        Cr109   2.006       .  S
O96          C97   1.265       .  A
C97        C1371   1.472       .  S
O98        Cr107   2.033       .  S
O98         C106   1.270       .  A
O99        Cr107   1.989       .  S
O99         C100   1.261       .  A
C100        O101   1.264       .  A
C100       C1384   1.470       .  S
O101       Cr108   2.010       .  S
O102       Cr108   1.980       .  S
O102        C103   1.262       .  A
C103        O104   1.265       .  A
C103       C1416   1.463       .  S
O104       Cr109   2.010       .  S
O105       Cr109   1.965       .  S
O105        C106   1.258       .  A
C106       C1355   1.478       .  S
Cr107       O110   1.768       .  S
Cr108       O110   1.765       .  S
Cr109       O110   1.764       .  S
O111       Cr129   1.990       .  S
O111        C119   1.261       .  A
O112       Cr129   2.026       .  S
O112        C113   1.271       .  A
C113        O114   1.260       .  A
C113       C1304   1.471       .  S
O114       Cr130   1.965       .  S
O115       Cr130   2.005       .  S
O115        C116   1.263       .  A
C116        O117   1.260       .  A
C116       C1435   1.463       .  S
O117       Cr131   1.984       .  S
O118       Cr131   2.003       .  S
O118        C119   1.263       .  A
C119       C1387   1.468       .  S
O120       Cr129   2.030       .  S
O120        C128   1.270       .  A
O121       Cr129   1.997       .  S
O121        C122   1.262       .  A
C122        O123   1.262       .  A
C122       C1368   1.472       .  S
O123       Cr130   2.006       .  S
O124       Cr130   1.976       .  S
O124        C125   1.261       .  A
C125        O126   1.266       .  A
C125       C1467   1.458       .  S
O126       Cr131   2.008       .  S
O127       Cr131   1.967       .  S
O127        C128   1.259       .  A
C128       C1323   1.476       .  S
Cr129       O132   1.766       .  S
Cr130       O132   1.767       .  S
Cr131       O132   1.767       .  S
O133       Cr151   1.986       .  S
O133        C141   1.261       .  A
O134       Cr151   2.026       .  S
O134        C135   1.271       .  A
C135        O136   1.262       .  A
C135       C1259   1.477       .  S
O136       Cr152   1.977       .  S
O137       Cr152   2.012       .  S
O137        C138   1.265       .  A
C138        O139   1.259       .  A
C138       C1672   1.469       .  S
O139       Cr153   1.983       .  S
O140       Cr153   2.016       .  S
O140        C141   1.266       .  A
C141       C1275   1.473       .  S
O142       Cr151   2.026       .  S
O142        C150   1.269       .  A
O143       Cr151   1.993       .  S
O143        C144   1.261       .  A
C144        O145   1.263       .  A
C144       C1291   1.470       .  S
O145       Cr152   2.009       .  S
O146       Cr152   1.984       .  S
O146        C147   1.263       .  A
C147        O148   1.269       .  A
C147       C1563   1.472       .  S
O148       Cr153   2.022       .  S
O149       Cr153   1.971       .  S
O149        C150   1.259       .  A
C150       C1352   1.477       .  S
Cr151       O154   1.770       .  S
Cr152       O154   1.771       .  S
Cr153       O154   1.770       .  S
O155       Cr173   1.988       .  S
O155        C163   1.262       .  A
O156       Cr173   2.033       .  S
O156        C157   1.273       .  A
C157        O158   1.262       .  A
C157       C1240   1.479       .  S
O158       Cr174   1.981       .  S
O159       Cr174   2.010       .  S
O159        C160   1.265       .  A
C160        O161   1.259       .  A
C160       C1579   1.469       .  S
O161       Cr175   1.983       .  S
O162       Cr175   2.011       .  S
O162        C163   1.265       .  A
C163       C1288   1.471       .  S
O164       Cr173   2.036       .  S
O164        C172   1.270       .  A
O165       Cr173   1.990       .  S
O165        C166   1.261       .  A
C166        O167   1.265       .  A
C166       C1272   1.474       .  S
O167       Cr174   2.016       .  S
O168       Cr174   1.981       .  S
O168        C169   1.262       .  A
C169        O170   1.267       .  A
C169       C1624   1.464       .  S
O170       Cr175   2.014       .  S
O171       Cr175   1.963       .  S
O171        C172   1.258       .  A
C172       C1320   1.480       .  S
Cr173       O176   1.769       .  S
Cr174       O176   1.768       .  S
Cr175       O176   1.767       .  S
O177       Cr195   2.030       .  S
O177        C185   1.270       .  A
O178       Cr195   1.974       .  S
O178        C179   1.258       .  A
C179        O180   1.265       .  A
C179       C1147   1.467       .  S
O180       Cr196   2.002       .  S
O181       Cr196   1.987       .  S
O181        C182   1.259       .  A
C182        O183   1.261       .  A
C182       C1176   1.463       .  S
O183       Cr197   1.998       .  S
O184       Cr197   1.967       .  S
O184        C185   1.260       .  A
C185       C1192   1.466       .  S
O186       Cr195   1.990       .  S
O186        C194   1.259       .  A
O187       Cr195   2.028       .  S
O187        C188   1.267       .  A
C188        O189   1.255       .  A
C188       C1211   1.469       .  S
O189       Cr196   1.957       .  S
O190       Cr196   2.000       .  S
O190        C191   1.265       .  A
C191        O192   1.264       .  A
C191       C1224   1.460       .  S
O192       Cr197   1.987       .  S
O193       Cr197   2.001       .  S
O193        C194   1.263       .  A
C194       C1160   1.471       .  S
Cr195       O198   1.783       .  S
Cr196       O198   1.770       .  S
Cr197       O198   1.768       .  S
O199       Cr217   1.990       .  S
O199        C207   1.263       .  A
O200       Cr217   2.029       .  S
O200        C201   1.269       .  A
C201        O202   1.260       .  A
C201       C1080   1.471       .  S
O202       Cr218   1.972       .  S
O203       Cr218   2.009       .  S
O203        C204   1.265       .  A
C204        O205   1.258       .  A
C204       C1115   1.465       .  S
O205       Cr219   1.981       .  S
O206       Cr219   2.004       .  S
O206        C207   1.266       .  A
C207       C1208   1.471       .  S
O208       Cr217   2.031       .  S
O208        C216   1.269       .  A
O209       Cr217   1.993       .  S
O209        C210   1.263       .  A
C210        O211   1.264       .  A
C210       C1195   1.469       .  S
O211       Cr218   2.000       .  S
O212       Cr218   1.980       .  S
O212        C213   1.261       .  A
C213        O214   1.266       .  A
C213       C1131   1.466       .  S
O214       Cr219   2.011       .  S
O215       Cr219   1.973       .  S
O215        C216   1.258       .  A
C216       C1099   1.474       .  S
Cr217       O220   1.773       .  S
Cr218       O220   1.762       .  S
Cr219       O220   1.759       .  S
O221       Cr239   1.983       .  S
O221        C229   1.260   1_554  A
O222       Cr239   2.020       .  S
O222        C223   1.271       .  A
C223        O224   1.261       .  A
C223       C1448   1.470       .  S
O224       Cr240   1.972       .  S
O225       Cr240   2.009       .  S
O225        C226   1.264       .  A
C226        O227   1.259       .  A
C226       C1112   1.465       .  S
O227       Cr241   1.982       .  S
O228       Cr241   2.023   1_556  S
O228        C229   1.268       .  A
C229       C1048   1.476       .  S
O230       Cr239   2.027       .  S
O230        C238   1.267       .  A
O231       Cr239   1.992       .  S
O231        C232   1.260       .  A
C232        O233   1.262       .  A
C232       C1064   1.468       .  S
O233       Cr240   2.006       .  S
O234       Cr240   1.976       .  S
O234        C235   1.261       .  A
C235        O236   1.268       .  A
C235       C1227   1.469       .  S
O236       Cr241   2.021       .  S
O237       Cr241   1.967       .  S
O237        C238   1.257       .  A
C238       C1035   1.475       .  S
Cr239       O242   1.768       .  S
Cr240       O242   1.769       .  S
Cr241       O242   1.763       .  S
O243       Cr261   1.984       .  S
O243        C251   1.261       .  A
O244       Cr261   2.037       .  S
O244        C245   1.273       .  A
C245        O246   1.261       .  A
C245       C1403   1.482       .  S
O246       Cr262   1.971       .  S
O247       Cr262   2.018       .  S
O247        C248   1.267       .  A
C248        O249   1.260       .  A
C248       C1179   1.470       .  S
O249       Cr263   1.981       .  S
O250       Cr263   2.011       .  S
O250        C251   1.264       .  A
C251       C1067   1.468       .  S
O252       Cr261   2.034       .  S
O252        C260   1.271       .  A
O253       Cr261   1.990       .  S
O253        C254   1.261       .  A
C254        O255   1.264       .  A
C254       C1051   1.475       .  S
O255       Cr262   2.016       .  S
O256       Cr262   1.978       .  S
O256        C257   1.260       .  A
C257        O258   1.266       .  A
C257       C1128   1.465       .  S
O258       Cr263   2.016       .  S
O259       Cr263   1.970       .  S
O259        C260   1.259       .  A
C260       C1019   1.478       .  S
Cr261       O264   1.768       .  S
Cr262       O264   1.768       .  S
Cr263       O264   1.769       .  S
O265       Cr283   1.994       .  S
O265        C273   1.264       .  A
O266       Cr283   2.030       .  S
O266        C267   1.271       .  A
C267        O268   1.262       .  A
C267       C1256   1.479       .  S
O268       Cr284   1.976       .  S
O269       Cr284   2.022       .  S
O269        C270   1.266       .  A
C270        O271   1.257       .  A
C270       C1003   1.468       .  S
O271       Cr285   1.972       .  S
O272       Cr285   2.008       .  S
O272        C273   1.269       .  A
C273        C968   1.478       .  S
O274       Cr283   2.029       .  S
O274        C282   1.266       .  A
O275       Cr283   2.000       .  S
O275        C276   1.264       .  A
C276        O277   1.265       .  A
C276        C955   1.476       .  S
O277       Cr284   2.001       .  S
O278       Cr284   1.975       .  S
O278        C279   1.259       .  A
C279        O280   1.267       .  A
C279        C987   1.477       .  S
O280       Cr285   2.022       .  S
O281       Cr285   1.968       .  S
O281        C282   1.257       .  A
C282       C1163   1.471       .  S
Cr283       O286   1.778       .  S
Cr284       O286   1.769       .  S
Cr285       O286   1.760       .  S
O287       Cr305   2.031       .  S
O287        C295   1.269       .  A
O288       Cr305   1.989       .  S
O288        C289   1.262       .  A
C289        O290   1.267       .  A
C289       C1243   1.481       .  S
O290       Cr306   2.013       .  S
O291       Cr306   1.985       .  S
O291        C292   1.261       .  A
C292        O293   1.264       .  A
C292        C939   1.463       .  S
O293       Cr307   2.001       .  S
O294       Cr307   1.969       .  S
O294        C295   1.258       .  A
C295        C952   1.468       .  S
O296       Cr305   1.991       .  S
O296        C304   1.261       .  A
O297       Cr305   2.032       .  S
O297        C298   1.268       .  A
C298        O299   1.257       .  A
C298        C971   1.471       .  S
O299       Cr306   1.965       .  S
O300       Cr306   1.999       .  S
O300        C301   1.264       .  A
C301        O302   1.263       .  A
C301        C923   1.471       .  S
O302       Cr307   1.999       .  S
O303       Cr307   2.005       .  S
O303        C304   1.264       .  A
C304       C1096   1.476       .  S
Cr305       O308   1.784       .  S
Cr306       O308   1.770       .  S
Cr307       O308   1.773       .  S
O309       Cr327   2.032       .  S
O309        C317   1.276       .  A
O310       Cr327   1.997       .  S
O310        C311   1.261       .  A
C311        O312   1.258       .  A
C311        C872   1.477       .  S
O312       Cr328   1.980       .  S
O313       Cr328   2.000       .  S
O313        C314   1.254       .  A
C314        O315   1.253       .  A
C314       C1000   1.466       .  S
O315       Cr329   1.987       .  S
O316       Cr329   1.966       .  S
O316        C317   1.268       .  A
C317        C907   1.475       .  S
O318       Cr327   2.000       .  S
O318        C326   1.255       .  A
O319       Cr327   2.013       .  S
O319        C320   1.267       .  A
C320        O321   1.259       .  A
C320        C891   1.472   1_554  S
O321       Cr328   1.965       .  S
O322       Cr328   2.013       .  S
O322        C323   1.272       .  A
C323        O324   1.267       .  A
C323        C920   1.472   1_554  S
O324       Cr329   1.986       .  S
O325       Cr329   1.978       .  S
O325        C326   1.251       .  A
C326       C1032   1.472       .  S
Cr327       O330   1.792       .  S
Cr328       O330   1.783       .  S
Cr329       O330   1.784       .  S
O331       Cr349   2.027       .  S
O331        C339   1.270       .  A
O332       Cr349   1.985       .  S
O332        C333   1.260       .  A
C333        O334   1.265       .  A
C333        C859   1.480       .  S
O334       Cr350   2.010       .  S
O335       Cr350   1.983       .  S
O335        C336   1.260       .  A
C336        O337   1.263       .  A
C336        C936   1.463       .  S
O337       Cr351   2.000       .  S
O338       Cr351   1.972       .  S
O338        C339   1.261       .  A
C339        C888   1.468       .  S
O340       Cr349   1.993       .  S
O340        C348   1.260       .  A
O341       Cr349   2.033       .  S
O341        C342   1.270       .  A
C342        O343   1.256       .  A
C342        C904   1.471       .  S
O343       Cr350   1.956       .  S
O344       Cr350   2.008       .  S
O344        C345   1.264       .  A
C345        O346   1.264       .  A
C345        C984   1.469       .  S
O346       Cr351   1.998       .  S
O347       Cr351   1.998       .  S
O347        C348   1.262       .  A
C348       C1016   1.475       .  S
Cr349       O352   1.789       .  S
Cr350       O352   1.777       .  S
Cr351       O352   1.772       .  S
O353       Cr371   1.988       .  S
O353        C361   1.261       .  A
O354       Cr371   2.034       .  S
O354        C355   1.271       .  A
C355        O356   1.261       .  A
C355        C875   1.476       .  S
O356       Cr372   1.970       .  S
O357       Cr372   2.011       .  S
O357        C358   1.265       .  A
C358        O359   1.261       .  A
C358        C792   1.465       .  S
O359       Cr373   1.982       .  S
O360       Cr373   2.009       .  S
O360        C361   1.263       .  A
C361        C824   1.467       .  S
O362       Cr371   2.033       .  S
O362        C370   1.270       .  A
O363       Cr371   1.990       .  S
O363        C364   1.261       .  A
C364        O365   1.263       .  A
C364        C843   1.468       .  S
O365       Cr372   2.010       .  S
O366       Cr372   1.979       .  S
O366        C367   1.261       .  A
C367        O368   1.265       .  A
C367        C808   1.461       .  S
O368       Cr373   2.005       .  S
O369       Cr373   1.962       .  S
O369        C370   1.257       .  A
C370        C779   1.473       .  S
Cr371       O374   1.766       .  S
Cr372       O374   1.763       .  S
Cr373       O374   1.764       .  S
O375       Cr393   1.987       .  S
O375        C383   1.262       .  A
O376       Cr393   2.040       .  S
O376        C377   1.273       .  A
C377        O378   1.263       .  A
C377        C856   1.481       .  S
O378       Cr394   1.976       .  S
O379       Cr394   2.014       .  S
O379        C380   1.264       .  A
C380        O381   1.258       .  A
C380        C747   1.469       .  S
O381       Cr395   1.983       .  S
O382       Cr395   2.011       .  S
O382        C383   1.266       .  A
C383        C840   1.470       .  S
O384       Cr393   2.035       .  S
O384        C392   1.270       .  A
O385       Cr393   1.994       .  S
O385        C386   1.261       .  A
C386        O387   1.262       .  A
C386        C827   1.470       .  S
O387       Cr394   2.004       .  S
O388       Cr394   1.978       .  S
O388        C389   1.261       .  A
C389        O390   1.269       .  A
C389        C760   1.470       .  S
O390       Cr395   2.021       .  S
O391       Cr395   1.961       .  S
O391        C392   1.257       .  A
C392        C728   1.476       .  S
Cr393       O396   1.771       .  S
Cr394       O396   1.767       .  S
Cr395       O396   1.765       .  S
O397       Cr415   1.990       .  S
O397        C405   1.262       .  A
O398       Cr415   2.027       .  S
O398        C399   1.272       .  A
C399        O400   1.262       .  A
C399       C1595   1.473       .  S
O400       Cr416   1.971       .  S
O401       Cr416   2.017       .  S
O401        C402   1.266       .  A
C402        O403   1.260       .  A
C402        C744   1.470       .  S
O403       Cr417   1.984       .  S
O404       Cr417   2.003       .  S
O404        C405   1.263       .  A
C405        C696   1.467       .  S
O406       Cr415   2.028       .  S
O406        C414   1.269       .  A
O407       Cr415   1.995       .  S
O407        C408   1.262       .  A
C408        O409   1.262       .  A
C408        C715   1.470       .  S
O409       Cr416   2.005       .  S
O410       Cr416   1.979       .  S
O410        C411   1.260       .  A
C411        O412   1.266       .  A
C411        C811   1.460       .  S
O412       Cr417   2.004       .  S
O413       Cr417   1.962       .  S
O413        C414   1.258       .  A
C414        C683   1.474       .  S
Cr415       O418   1.768       .  S
Cr416       O418   1.768       .  S
Cr417       O418   1.766       .  S
O419       Cr437   1.986   1_554  S
O419        C427   1.262       .  A
O420       Cr437   2.026       .  S
O420        C421   1.271       .  A
C421        O422   1.263       .  A
C421       C1531   1.478       .  S
O422       Cr438   1.979       .  S
O423       Cr438   2.011       .  S
O423        C424   1.265       .  A
C424        O425   1.259   1_556  A
C424        C795   1.465   1_556  S
O425       Cr439   1.979   1_554  S
O426       Cr439   2.013   1_554  S
O426        C427   1.265       .  A
C427        C712   1.468       .  S
O428       Cr437   2.025       .  S
O428        C436   1.268       .  A
O429       Cr437   1.996       .  S
O429        C430   1.262       .  A
C430        O431   1.263       .  A
C430        C699   1.470       .  S
O431       Cr438   2.002       .  S
O432       Cr438   1.985       .  S
O432        C433   1.262       .  A
C433        O434   1.267       .  A
C433        C763   1.469       .  S
O434       Cr439   2.017       .  S
O435       Cr439   1.969       .  S
O435        C436   1.258       .  A
C436        C667   1.470       .  S
Cr437       O440   1.767       .  S
Cr438       O440   1.766       .  S
Cr439       O440   1.765       .  S
O441       Cr459   1.995       .  S
O441        C449   1.263       .  A
O442       Cr459   2.019       .  S
O442        C443   1.270       .  A
C443        O444   1.261       .  A
C443       C1144   1.466       .  S
O444       Cr460   1.973       .  S
O445       Cr460   1.998       .  S
O445        C446   1.261       .  A
C446        O447   1.260       .  A
C446        C648   1.469       .  S
O447       Cr461   1.990       .  S
O448       Cr461   2.012       .  S
O448        C449   1.267       .  A
C449        C616   1.477       .  S
O450       Cr459   2.024       .  S
O450        C458   1.267       .  A
O451       Cr459   2.010       .  S
O451        C452   1.264       .  A
C452        O453   1.262       .  A
C452        C600   1.480       .  S
O453       Cr460   1.997       .  S
O454       Cr460   1.974       .  S
O454        C455   1.261       .  A
C455        O456   1.269       .  A
C455        C632   1.465       .  S
O456       Cr461   2.016       .  S
O457       Cr461   1.964       .  S
O457        C458   1.257       .  A
C458        C680   1.472       .  S
Cr459       O462   1.773       .  S
Cr460       O462   1.765       .  S
Cr461       O462   1.766       .  S
O463       Cr481   2.030       .  S
O463        C471   1.272       .  A
O464       Cr481   1.984       .  S
O464        C465   1.262       .  A
C465        O466   1.265       .  A
C465       C1083   1.472       .  S
O466       Cr482   1.997       .  S
O467       Cr482   1.998       .  S
O467        C468   1.256       .  A
C468        O469   1.254       .  A
C468        C587   1.465       .  S
O469       Cr483   1.987       .  S
O470       Cr483   1.985       .  S
O470        C471   1.265       .  A
C471        C603   1.474       .  S
O472       Cr481   1.994       .  S
O472        C480   1.258       .  A
O473       Cr481   2.017       .  S
O473        C474   1.265   1_556  A
C474        O475   1.255       .  A
C474        C619   1.470       .  S
O475       Cr482   1.967   1_554  S
O476       Cr482   2.011       .  S
O476        C477   1.271       .  A
C477        O478   1.266       .  A
C477        C568   1.469   1_556  S
O478       Cr483   1.982       .  S
O479       Cr483   1.990       .  S
O479        C480   1.259       .  A
C480        C664   1.471       .  S
Cr481       O484   1.787       .  S
Cr482       O484   1.776       .  S
Cr483       O484   1.778       .  S
O485       Cr503   2.026       .  S
O485        C493   1.268       .  A
O486       Cr503   1.975       .  S
O486        C487   1.259       .  A
C487        O488   1.267       .  A
C487       C1336   1.472       .  S
O488       Cr504   2.011       .  S
O489       Cr504   1.983       .  S
O489        C490   1.259       .  A
C490        O491   1.263       .  A
C490        C651   1.461       .  S
O491       Cr505   1.999       .  S
O492       Cr505   1.967       .  S
O492        C493   1.258       .  A
C493        C552   1.464       .  S
O494       Cr503   1.984       .  S
O494        C502   1.260       .  A
O495       Cr503   2.026       .  S
O495        C496   1.266       .  A
C496        O497   1.257       .  A
C496        C536   1.467       .  S
O497       Cr504   1.964       .  S
O498       Cr504   2.009       .  S
O498        C499   1.266       .  A
C499        O500   1.261       .  A
C499        C571   1.465       .  S
O500       Cr505   1.988       .  S
O501       Cr505   2.002       .  S
O501        C502   1.264       .  A
C502        C776   1.470       .  S
Cr503       O506   1.784       .  S
Cr504       O506   1.770       .  S
Cr505       O506   1.768       .  S
O507       Cr525   1.993       .  S
O507        C515   1.262       .  A
O508       Cr525   2.023       .  S
O508        C509   1.270       .  A
C509        O510   1.260       .  A
C509       C1307   1.471       .  S
O510       Cr526   1.970       .  S
O511       Cr526   2.022       .  S
O511        C512   1.267       .  A
C512        O513   1.260       .  A
C512        C584   1.471       .  S
O513       Cr527   1.978       .  S
O514       Cr527   1.998       .  S
O514        C515   1.263       .  A
C515        C539   1.470       .  S
O516       Cr525   2.028       .  S
O516        C524   1.269       .  A
O517       Cr525   1.989       .  S
O517        C518   1.261       .  A
C518        O519   1.263       .  A
C518        C555   1.468       .  S
O519       Cr526   2.000       .  S
O520       Cr526   1.982       .  S
O520        C521   1.258       .  A
C521        O522   1.265       .  A
C521        C635   1.465       .  S
O522       Cr527   2.011       .  S
O523       Cr527   1.971       .  S
O523        C524   1.261       .  A
C524        C731   1.477       .  S
Cr525       O528   1.774       .  S
Cr526       O528   1.769       .  S
Cr527       O528   1.762       .  S
C529        C534   1.381       .  A
C529        C530   1.410       .  A
C529        O535   1.325   1_556  A
C530        C531   1.409       .  A
C530        H541   1.082       .  S
C531        C540   1.370       .  A
C531        C532   1.381       .  A
C532        C533   1.397       .  A
C532        O538   1.313       .  A
C533        C534   1.397       .  A
C533        H542   1.082       .  S
C534        C537   1.354   1_556  A
O535        C536   1.334       .  A
C536        C537   1.387       .  A
C537        H543   1.083       .  S
O538        C539   1.328       .  A
C539        C540   1.395       .  A
C540        H544   1.082       .  S
C545        C550   1.381       .  A
C545        C546   1.408       .  A
C545        O551   1.323       .  A
C546        C547   1.407       .  A
C546        H557   1.082       .  S
C547        C556   1.367       .  A
C547        C548   1.381       .  A
C548        C549   1.399       .  A
C548        O554   1.314       .  A
C549        C550   1.398       .  A
C549        H558   1.083       .  S
C550        C553   1.357       .  A
O551        C552   1.332       .  A
C552        C553   1.387       .  A
C553        H559   1.083       .  S
O554        C555   1.328       .  A
C555        C556   1.393       .  A
C556        H560   1.082       .  S
C561        C566   1.381       .  A
C561        C562   1.400       .  A
C561        O567   1.316       .  A
C562        C563   1.399       .  A
C562        H573   1.082       .  S
C563        C572   1.357       .  A
C563        C564   1.381       .  A
C564        C565   1.407       .  A
C564        O570   1.324       .  A
C565        C566   1.407       .  A
C565        H574   1.086       .  S
C566        C569   1.367   1_554  A
O567        C568   1.329       .  A
C568        C569   1.392   1_554  A
C569        H575   1.085       .  S
O570        C571   1.332       .  A
C571        C572   1.387       .  A
C572        H576   1.082       .  S
C577        C582   1.381       .  A
C577        C578   1.406       .  A
C577        O583   1.321       .  A
C578        C579   1.405       .  A
C578        H589   1.083       .  S
C579        C588   1.367       .  A
C579        C580   1.381       .  A
C580        C581   1.403       .  A
C580        O586   1.317       .  A
C581        C582   1.401       .  A
C581        H590   1.083       .  S
C582        C585   1.362       .  A
O583        C584   1.332       .  A
C584        C585   1.390       .  A
C585        H591   1.083       .  S
O586        C587   1.330       .  A
C587        C588   1.391       .  A
C588        H592   1.083       .  S
C593        C598   1.380       .  A
C593        C594   1.410       .  A
C593        O599   1.327       .  A
C594        C595   1.411       .  A
C594        H605   1.082       .  S
C595        C604   1.369       .  A
C595        C596   1.381       .  A
C596        C597   1.401       .  A
C596        O602   1.319       .  A
C597        C598   1.401       .  A
C597        H606   1.082       .  S
C598        C601   1.356       .  A
O599        C600   1.335       .  A
C600        C601   1.392       .  A
C601        H607   1.083       .  S
O602        C603   1.329       .  A
C603        C604   1.394       .  A
C604        H608   1.082       .  S
C609        C614   1.380       .  A
C609        C610   1.409       .  A
C609        O615   1.324       .  A
C610        C611   1.409       .  A
C610        H621   1.082       .  S
C611        C620   1.368       .  A
C611        C612   1.380       .  A
C612        C613   1.402       .  A
C612        O618   1.319       .  A
C613        C614   1.402       .  A
C613        H622   1.082       .  S
C614        C617   1.361       .  A
O615        C616   1.334       .  A
C616        C617   1.390       .  A
C617        H623   1.083       .  S
O618        C619   1.329       .  A
C619        C620   1.394       .  A
C620        H624   1.082       .  S
C625        C630   1.381       .  A
C625        C626   1.400       .  A
C625        O631   1.317       .  A
C626        C627   1.400       .  A
C626        H637   1.082       .  S
C627        C636   1.357       .  A
C627        C628   1.381       .  A
C628        C629   1.404       .  A
C628        O634   1.321       .  A
C629        C630   1.404       .  A
C629        H638   1.082       .  S
C630        C633   1.362       .  A
O631        C632   1.329       .  A
C632        C633   1.392       .  A
C633        H639   1.083       .  S
O634        C635   1.331       .  A
C635        C636   1.388       .  A
C636        H640   1.083       .  S
C641        C646   1.381       .  A
C641        C642   1.402       .  A
C641        O647   1.322       .  A
C642        C643   1.403       .  A
C642        H653   1.084       .  S
C643        C652   1.358       .  A
C643        C644   1.381       .  A
C644        C645   1.402       .  A
C644        O650   1.321       .  A
C645        C646   1.403       .  A
C645        H654   1.085       .  S
C646        C649   1.357       .  A
O647        C648   1.330       .  A
C648        C649   1.391       .  A
C649        H655   1.085       .  S
O650        C651   1.330       .  A
C651        C652   1.389       .  A
C652        H656   1.084       .  S
C657        C662   1.380       .  A
C657        C658   1.407       .  A
C657        O663   1.324       .  A
C658        C659   1.407   1_655  A
C658        H669   1.082       .  S
C659        C668   1.367       .  A
C659        C660   1.381       .  A
C660        C661   1.399   1_455  A
C660        O666   1.316       .  A
C661        C662   1.399       .  A
C661        H670   1.082       .  S
C662        C665   1.355       .  A
O663        C664   1.333       .  A
C664        C665   1.389       .  A
C665        H671   1.083       .  S
O666        C667   1.329       .  A
C667        C668   1.394       .  A
C668        H672   1.082       .  S
C673        C678   1.380       .  A
C673        C674   1.397       .  A
C673        O679   1.313       .  A
C674        C675   1.397   1_655  A
C674        H685   1.082       .  S
C675        C684   1.354       .  A
C675        C676   1.380       .  A
C676        C677   1.411   1_455  A
C676        O682   1.326       .  A
C677        C678   1.410       .  A
C677        H686   1.082       .  S
C678        C681   1.371       .  A
O679        C680   1.328       .  A
C680        C681   1.396       .  A
C681        H687   1.082       .  S
O682        C683   1.335       .  A
C683        C684   1.389       .  A
C684        H688   1.083       .  S
C689        C694   1.381       .  A
C689        C690   1.402       .  A
C689        O695   1.319       .  A
C690        C691   1.402       .  A
C690        H701   1.082       .  S
C691        C700   1.359       .  A
C691        C692   1.381       .  A
C692        C693   1.405       .  A
C692        O698   1.322       .  A
C693        C694   1.405       .  A
C693        H702   1.082       .  S
C694        C697   1.363       .  A
O695        C696   1.329       .  A
C696        C697   1.392       .  A
C697        H703   1.083       .  S
O698        C699   1.332       .  A
C699        C700   1.391       .  A
C700        H704   1.083       .  S
C705        C710   1.380       .  A
C705        C706   1.405       .  A
C705        O711   1.320       .  A
C706        C707   1.404       .  A
C706        H717   1.082       .  S
C707        C716   1.365       .  A
C707        C708   1.380       .  A
C708        C709   1.404       .  A
C708        O714   1.319       .  A
C709        C710   1.403       .  A
C709        H718   1.082       .  S
C710        C713   1.363       .  A
O711        C712   1.331       .  A
C712        C713   1.390       .  A
C713        H719   1.083       .  S
O714        C715   1.331       .  A
C715        C716   1.391       .  A
C716        H720   1.082       .  S
C721        C726   1.380       .  A
C721        C722   1.398   1_455  A
C721        O727   1.313       .  A
C722        C723   1.396       .  A
C722        H733   1.083       .  S
C723        C732   1.356       .  A
C723        C724   1.379       .  A
C724        C725   1.413       .  A
C724        O730   1.326       .  A
C725        C726   1.412   1_655  A
C725        H734   1.082       .  S
C726        C729   1.375       .  A
O727        C728   1.328       .  A
C728        C729   1.397       .  A
C729        H735   1.082       .  S
O730        C731   1.336       .  A
C731        C732   1.389       .  A
C732        H736   1.083       .  S
C737        C742   1.380       .  A
C737        C738   1.405       .  A
C737        O743   1.318       .  A
C738        C739   1.403       .  A
C738        H749   1.082       .  S
C739        C748   1.365       .  A
C739        C740   1.380       .  A
C740        C741   1.405       .  A
C740        O746   1.318       .  A
C741        C742   1.403       .  A
C741        H750   1.082       .  S
C742        C745   1.366       .  A
O743        C744   1.331       .  A
C744        C745   1.392       .  A
C745        H751   1.082       .  S
O746        C747   1.331       .  A
C747        C748   1.391       .  A
C748        H752   1.082       .  S
C753        C758   1.381       .  A
C753        C754   1.404       .  A
C753        O759   1.319       .  A
C754        C755   1.403       .  A
C754        H765   1.082       .  S
C755        C764   1.364       .  A
C755        C756   1.381       .  A
C756        C757   1.404       .  A
C756        O762   1.318       .  A
C757        C758   1.403       .  A
C757        H766   1.082       .  S
C758        C761   1.363       .  A
O759        C760   1.331       .  A
C760        C761   1.392       .  A
C761        H767   1.083       .  S
O762        C763   1.331       .  A
C763        C764   1.391       .  A
C764        H768   1.082       .  S
C769        C774   1.381       .  A
C769        C770   1.399       .  A
C769        O775   1.316       .  A
C770        C771   1.399   1_655  A
C770        H781   1.082       .  S
C771        C780   1.355       .  A
C771        C772   1.380       .  A
C772        C773   1.409   1_455  A
C772        O778   1.325       .  A
C773        C774   1.408       .  A
C773        H782   1.082       .  S
C774        C777   1.368       .  A
O775        C776   1.329       .  A
C776        C777   1.394       .  A
C777        H783   1.082       .  S
O778        C779   1.333       .  A
C779        C780   1.390       .  A
C780        H784   1.083       .  S
C785        C790   1.381       .  A
C785        C786   1.403       .  A
C785        O791   1.316       .  A
C786        C787   1.401       .  A
C786        H797   1.082       .  S
C787        C796   1.363       .  A
C787        C788   1.381       .  A
C788        C789   1.403       .  A
C788        O794   1.316   1_554  A
C789        C790   1.401       .  A
C789        H798   1.082   1_554  S
C790        C793   1.364       .  A
O791        C792   1.330       .  A
C792        C793   1.390       .  A
C793        H799   1.083       .  S
O794        C795   1.330   1_556  A
C795        C796   1.390       .  A
C796        H800   1.083       .  S
C801        C806   1.382       .  A
C801        C802   1.398       .  A
C801        O807   1.316       .  A
C802        C803   1.398       .  A
C802        H813   1.083       .  S
C803        C812   1.355       .  A
C803        C804   1.382       .  A
C804        C805   1.402       .  A
C804        O810   1.318       .  A
C805        C806   1.402       .  A
C805        H814   1.082       .  S
C806        C809   1.358       .  A
O807        C808   1.327       .  A
C808        C809   1.391       .  A
C809        H815   1.083       .  S
O810        C811   1.330       .  A
C811        C812   1.388       .  A
C812        H816   1.083       .  S
C817        C822   1.380       .  A
C817        C818   1.406       .  A
C817        O823   1.320       .  A
C818        C819   1.405       .  A
C818        H829   1.082       .  S
C819        C828   1.366       .  A
C819        C820   1.380       .  A
C820        C821   1.403       .  A
C820        O826   1.317       .  A
C821        C822   1.401       .  A
C821        H830   1.082       .  S
C822        C825   1.362       .  A
O823        C824   1.332   1_556  A
C824        C825   1.389   1_554  A
C825        H831   1.083   1_556  S
O826        C827   1.330       .  A
C827        C828   1.392       .  A
C828        H832   1.082       .  S
C833        C838   1.380       .  A
C833        C834   1.405       .  A
C833        O839   1.320       .  A
C834        C835   1.404       .  A
C834        H845   1.082       .  S
C835        C844   1.365       .  A
C835        C836   1.381       .  A
C836        C837   1.404       .  A
C836        O842   1.319       .  A
C837        C838   1.403       .  A
C837        H846   1.082       .  S
C838        C841   1.363       .  A
O839        C840   1.332       .  A
C840        C841   1.390       .  A
C841        H847   1.083       .  S
O842        C843   1.331       .  A
C843        C844   1.391       .  A
C844        H848   1.083       .  S
C849        C854   1.380       .  A
C849        C850   1.409       .  A
C849        O855   1.325       .  A
C850        C851   1.409       .  A
C850        H861   1.082       .  S
C851        C860   1.368       .  A
C851        C852   1.380       .  A
C852        C853   1.404       .  A
C852        O858   1.321       .  A
C853        C854   1.404       .  A
C853        H862   1.082       .  S
C854        C857   1.362       .  A
O855        C856   1.335       .  A
C856        C857   1.392       .  A
C857        H863   1.083       .  S
O858        C859   1.332       .  A
C859        C860   1.395       .  A
C860        H864   1.082       .  S
C865        C870   1.380       .  A
C865        C866   1.401       .  A
C865        O871   1.317       .  A
C866        C867   1.400       .  A
C866        H877   1.082       .  S
C867        C876   1.359       .  A
C867        C868   1.380       .  A
C868        C869   1.410       .  A
C868        O874   1.325       .  A
C869        C870   1.409       .  A
C869        H878   1.082       .  S
C870        C873   1.370       .  A
O871        C872   1.330       .  A
C872        C873   1.395       .  A
C873        H879   1.082       .  S
O874        C875   1.334       .  A
C875        C876   1.390       .  A
C876        H880   1.083       .  S
C881        C886   1.381       .  A
C881        C882   1.400       .  A
C881        O887   1.316       .  A
C882        C883   1.399       .  A
C882        H893   1.082       .  S
C883        C892   1.358       .  A
C883        C884   1.380       .  A
C884        C885   1.410       .  A
C884        O890   1.325       .  A
C885        C886   1.409       .  A
C885        H894   1.082       .  S
C886        C889   1.370       .  A
O887        C888   1.328       .  A
C888        C889   1.393       .  A
C889        H895   1.082       .  S
O890        C891   1.334       .  A
C891        C892   1.389       .  A
C892        H896   1.083       .  S
C897        C902   1.380       .  A
C897        C898   1.396       .  A
C897        O903   1.311       .  A
C898        C899   1.394       .  A
C898        H909   1.083       .  S
C899        C908   1.353       .  A
C899        C900   1.380       .  A
C900        C901   1.414       .  A
C900        O906   1.327       .  A
C901        C902   1.412       .  A
C901        H910   1.082       .  S
C902        C905   1.376       .  A
O903        C904   1.327       .  A
C904        C905   1.397       .  A
C905        H911   1.082       .  S
O906        C907   1.336       .  A
C907        C908   1.387       .  A
C908        H912   1.083       .  S
C913        C918   1.381       .  A
C913        C914   1.398       .  A
C913        O919   1.315       .  A
C914        C915   1.398       .  A
C914        H925   1.083       .  S
C915        C924   1.353       .  A
C915        C916   1.381       .  A
C916        C917   1.411       .  A
C916        O922   1.328       .  A
C917        C918   1.411       .  A
C917        H926   1.082       .  S
C918        C921   1.370       .  A
O919        C920   1.328       .  A
C920        C921   1.395       .  A
C921        H927   1.082   1_556  S
O922        C923   1.334       .  A
C923        C924   1.388       .  A
C924        H928   1.083       .  S
C929        C934   1.380       .  A
C929        C930   1.405       .  A
C929        O935   1.317       .  A
C930        C931   1.403       .  A
C930        H941   1.083       .  S
C931        C940   1.366       .  A
C931        C932   1.380       .  A
C932        C933   1.404       .  A
C932        O938   1.317       .  A
C933        C934   1.402       .  A
C933        H942   1.083       .  S
C934        C937   1.365       .  A
O935        C936   1.331       .  A
C936        C937   1.390       .  A
C937        H943   1.083       .  S
O938        C939   1.330       .  A
C939        C940   1.391       .  A
C940        H944   1.083       .  S
C945        C950   1.381       .  A
C945        C946   1.399       .  A
C945        O951   1.316       .  A
C946        C947   1.398       .  A
C946        H957   1.082       .  S
C947        C956   1.355       .  A
C947        C948   1.380       .  A
C948        C949   1.410       .  A
C948        O954   1.326       .  A
C949        C950   1.410       .  A
C949        H958   1.082       .  S
C950        C953   1.370       .  A
O951        C952   1.328       .  A
C952        C953   1.394       .  A
C953        H959   1.082       .  S
O954        C955   1.335       .  A
C955        C956   1.389       .  A
C956        H960   1.083       .  S
C961        C966   1.379       .  A
C961        C962   1.413       .  A
C961        O967   1.328       .  A
C962        C963   1.413       .  A
C962        H973   1.082       .  S
C963        C972   1.374   1_554  A
C963        C964   1.381       .  A
C964        C965   1.397       .  A
C964        O970   1.313   1_554  A
C965        C966   1.396       .  A
C965        H974   1.083       .  S
C966        C969   1.354       .  A
O967        C968   1.336       .  A
C968        C969   1.388       .  A
C969        H975   1.083       .  S
O970        C971   1.327       .  A
C971        C972   1.397       .  A
C972        H976   1.082       .  S
C977        C982   1.380       .  A
C977        C978   1.402       .  A
C977        O983   1.317       .  A
C978        C979   1.401       .  A
C978        H989   1.083       .  S
C979        C988   1.360       .  A
C979        C980   1.380       .  A
C980        C981   1.408       .  A
C980        O986   1.323       .  A
C981        C982   1.408       .  A
C981        H990   1.082       .  S
C982        C985   1.369       .  A
O983        C984   1.330       .  A
C984        C985   1.392       .  A
C985        H991   1.082       .  S
O986        C987   1.334       .  A
C987        C988   1.391       .  A
C988        H992   1.083       .  S
C993        C998   1.380       .  A
C993        C994   1.408       .  A
C993        O999   1.323       .  A
C994        C995   1.407       .  A
C994       H1005   1.082       .  S
C995       C1004   1.367       .  A
C995        C996   1.381       .  A
C996        C997   1.399       .  A
C996       O1002   1.316       .  A
C997        C998   1.399       .  A
C997       H1006   1.083       .  S
C998       C1001   1.357       .  A
O999       C1000   1.333       .  A
C1000      C1001   1.389       .  A
C1001      H1007   1.083       .  S
O1002      C1003   1.328       .  A
C1003      C1004   1.393       .  A
C1004      H1008   1.082       .  S
C1009      C1014   1.380       .  A
C1009      C1010   1.411       .  A
C1009      O1015   1.326       .  A
C1010      C1011   1.410       .  A
C1010      H1021   1.082       .  S
C1011      C1020   1.371       .  A
C1011      C1012   1.380       .  A
C1012      C1013   1.401       .  A
C1012      O1018   1.317       .  A
C1013      C1014   1.401       .  A
C1013      H1022   1.082       .  S
C1014      C1017   1.359       .  A
O1015      C1016   1.335       .  A
C1016      C1017   1.389       .  A
C1017      H1023   1.083       .  S
O1018      C1019   1.331       .  A
C1019      C1020   1.396       .  A
C1020      H1024   1.082       .  S
C1025      C1030   1.380       .  A
C1025      C1026   1.399       .  A
C1025      O1031   1.314       .  A
C1026      C1027   1.398       .  A
C1026      H1037   1.082       .  S
C1027      C1036   1.356       .  A
C1027      C1028   1.380       .  A
C1028      C1029   1.410       .  A
C1028      O1034   1.325       .  A
C1029      C1030   1.409       .  A
C1029      H1038   1.082       .  S
C1030      C1033   1.371       .  A
O1031      C1032   1.329       .  A
C1032      C1033   1.394       .  A
C1033      H1039   1.082       .  S
O1034      C1035   1.334       .  A
C1035      C1036   1.390       .  A
C1036      H1040   1.083       .  S
C1041      C1046   1.380       .  A
C1041      C1042   1.405       .  A
C1041      O1047   1.322       .  A
C1042      C1043   1.404       .  A
C1042      H1053   1.082       .  S
C1043      C1052   1.364       .  A
C1043      C1044   1.380       .  A
C1044      C1045   1.407       .  A
C1044      O1050   1.323       .  A
C1045      C1046   1.407       .  A
C1045      H1054   1.082       .  S
C1046      C1049   1.366       .  A
O1047      C1048   1.331       .  A
C1048      C1049   1.393       .  A
C1049      H1055   1.083       .  S
O1050      C1051   1.333       .  A
C1051      C1052   1.391       .  A
C1052      H1056   1.083       .  S
C1057      C1062   1.381       .  A
C1057      C1058   1.402       .  A
C1057      O1063   1.318       .  A
C1058      C1059   1.401       .  A
C1058      H1069   1.082       .  S
C1059      C1068   1.361       .  A
C1059      C1060   1.380       .  A
C1060      C1061   1.406       .  A
C1060      O1066   1.321       .  A
C1061      C1062   1.405       .  A
C1061      H1070   1.082       .  S
C1062      C1065   1.365       .  A
O1063      C1064   1.330       .  A
C1064      C1065   1.392       .  A
C1065      H1071   1.083       .  S
O1066      C1067   1.332       .  A
C1067      C1068   1.389       .  A
C1068      H1072   1.083       .  S
C1073      C1078   1.380       .  A
C1073      C1074   1.408       .  A
C1073      O1079   1.323       .  A
C1074      C1075   1.407       .  A
C1074      H1085   1.082       .  S
C1075      C1084   1.367       .  A
C1075      C1076   1.381       .  A
C1076      C1077   1.400       .  A
C1076      O1082   1.316       .  A
C1077      C1078   1.399       .  A
C1077      H1086   1.082       .  S
C1078      C1081   1.358       .  A
O1079      C1080   1.333       .  A
C1080      C1081   1.389       .  A
C1081      H1087   1.083       .  S
O1082      C1083   1.329       .  A
C1083      C1084   1.394       .  A
C1084      H1088   1.082       .  S
C1089      C1094   1.380       .  A
C1089      C1090   1.403       .  A
C1089      O1095   1.318       .  A
C1090      C1091   1.402       .  A
C1090      H1101   1.082       .  S
C1091      C1100   1.361       .  A
C1091      C1092   1.380       .  A
C1092      C1093   1.408       .  A
C1092      O1098   1.323       .  A
C1093      C1094   1.407       .  A
C1093      H1102   1.082       .  S
C1094      C1097   1.368       .  A
O1095      C1096   1.331       .  A
C1096      C1097   1.394       .  A
C1097      H1103   1.082       .  S
O1098      C1099   1.333       .  A
C1099      C1100   1.391       .  A
C1100      H1104   1.083       .  S
C1105      C1110   1.381   1_556  A
C1105      C1106   1.401       .  A
C1105      O1111   1.320       .  A
C1106      C1107   1.402       .  A
C1106      H1117   1.083       .  S
C1107      C1116   1.358       .  A
C1107      C1108   1.381       .  A
C1108      C1109   1.403   1_556  A
C1108      O1114   1.321       .  A
C1109      C1110   1.403       .  A
C1109      H1118   1.083       .  S
C1110      C1113   1.359       .  A
O1111      C1112   1.329   1_556  A
C1112      C1113   1.391       .  A
C1113      H1119   1.083       .  S
O1114      C1115   1.331       .  A
C1115      C1116   1.389       .  A
C1116      H1120   1.083       .  S
C1121      C1126   1.381       .  A
C1121      C1122   1.404       .  A
C1121      O1127   1.318       .  A
C1122      C1123   1.403       .  A
C1122      H1133   1.082       .  S
C1123      C1132   1.364       .  A
C1123      C1124   1.381       .  A
C1124      C1125   1.402       .  A
C1124      O1130   1.316       .  A
C1125      C1126   1.400       .  A
C1125      H1134   1.082       .  S
C1126      C1129   1.361       .  A
O1127      C1128   1.331       .  A
C1128      C1129   1.389       .  A
C1129      H1135   1.083       .  S
O1130      C1131   1.329       .  A
C1131      C1132   1.391       .  A
C1132      H1136   1.083       .  S
C1137      C1142   1.381       .  A
C1137      C1138   1.402       .  A
C1137      O1143   1.318       .  A
C1138      C1139   1.402       .  A
C1138      H1149   1.082       .  S
C1139      C1148   1.361       .  A
C1139      C1140   1.381       .  A
C1140      C1141   1.402       .  A
C1140      O1146   1.318       .  A
C1141      C1142   1.402       .  A
C1141      H1150   1.082       .  S
C1142      C1145   1.360       .  A
O1143      C1144   1.330       .  A
C1144      C1145   1.390       .  A
C1145      H1151   1.083       .  S
O1146      C1147   1.330       .  A
C1147      C1148   1.391       .  A
C1148      H1152   1.082       .  S
C1153      C1158   1.381       .  A
C1153      C1154   1.397       .  A
C1153      O1159   1.314       .  A
C1154      C1155   1.396       .  A
C1154      H1165   1.082       .  S
C1155      C1164   1.355       .  A
C1155      C1156   1.380       .  A
C1156      C1157   1.411       .  A
C1156      O1162   1.325       .  A
C1157      C1158   1.410       .  A
C1157      H1166   1.082       .  S
C1158      C1161   1.371       .  A
O1159      C1160   1.328       .  A
C1160      C1161   1.396       .  A
C1161      H1167   1.082       .  S
O1162      C1163   1.335       .  A
C1163      C1164   1.387       .  A
C1164      H1168   1.083       .  S
C1169      C1174   1.380       .  A
C1169      C1170   1.403       .  A
C1169      O1175   1.316       .  A
C1170      C1171   1.401       .  A
C1170      H1181   1.083       .  S
C1171      C1180   1.364       .  A
C1171      C1172   1.381       .  A
C1172      C1173   1.406       .  A
C1172      O1178   1.319       .  A
C1173      C1174   1.404       .  A
C1173      H1182   1.082       .  S
C1174      C1177   1.367       .  A
O1175      C1176   1.330       .  A
C1176      C1177   1.391       .  A
C1177      H1183   1.083       .  S
O1178      C1179   1.331       .  A
C1179      C1180   1.391       .  A
C1180      H1184   1.083       .  S
C1185      C1190   1.381       .  A
C1185      C1186   1.409       .  A
C1185      O1191   1.324       .  A
C1186      C1187   1.408       .  A
C1186      H1197   1.082       .  S
C1187      C1196   1.369       .  A
C1187      C1188   1.381       .  A
C1188      C1189   1.398       .  A
C1188      O1194   1.314       .  A
C1189      C1190   1.397       .  A
C1189      H1198   1.083       .  S
C1190      C1193   1.356       .  A
O1191      C1192   1.333       .  A
C1192      C1193   1.387       .  A
C1193      H1199   1.083       .  S
O1194      C1195   1.328       .  A
C1195      C1196   1.394       .  A
C1196      H1200   1.082       .  S
C1201      C1206   1.381       .  A
C1201      C1202   1.396       .  A
C1201      O1207   1.314       .  A
C1202      C1203   1.396       .  A
C1202      H1213   1.083       .  S
C1203      C1212   1.352       .  A
C1203      C1204   1.380       .  A
C1204      C1205   1.411       .  A
C1204      O1210   1.327       .  A
C1205      C1206   1.411       .  A
C1205      H1214   1.082       .  S
C1206      C1209   1.371       .  A
O1207      C1208   1.327   1_554  A
C1208      C1209   1.396   1_556  A
C1209      H1215   1.082       .  S
O1210      C1211   1.335       .  A
C1211      C1212   1.386       .  A
C1212      H1216   1.083       .  S
C1217      C1222   1.381       .  A
C1217      C1218   1.402       .  A
C1217      O1223   1.317       .  A
C1218      C1219   1.401       .  A
C1218      H1229   1.083       .  S
C1219      C1228   1.361       .  A
C1219      C1220   1.380       .  A
C1220      C1221   1.404       .  A
C1220      O1226   1.319       .  A
C1221      C1222   1.403       .  A
C1221      H1230   1.082       .  S
C1222      C1225   1.363       .  A
O1223      C1224   1.329       .  A
C1224      C1225   1.390       .  A
C1225      H1231   1.083       .  S
O1226      C1227   1.331       .  A
C1227      C1228   1.391       .  A
C1228      H1232   1.083       .  S
C1233      C1238   1.380       .  A
C1233      C1234   1.407       .  A
C1233      O1239   1.323       .  A
C1234      C1235   1.407       .  A
C1234      H1245   1.082       .  S
C1235      C1244   1.366       .  A
C1235      C1236   1.380       .  A
C1236      C1237   1.407       .  A
C1236      O1242   1.323       .  A
C1237      C1238   1.406       .  A
C1237      H1246   1.082       .  S
C1238      C1241   1.366       .  A
O1239      C1240   1.333       .  A
C1240      C1241   1.393       .  A
C1241      H1247   1.082       .  S
O1242      C1243   1.333       .  A
C1243      C1244   1.394       .  A
C1244      H1248   1.082       .  S
C1249      C1254   1.380       .  A
C1249      C1250   1.407       .  A
C1249      O1255   1.323       .  A
C1250      C1251   1.407       .  A
C1250      H1261   1.082       .  S
C1251      C1260   1.367       .  A
C1251      C1252   1.380       .  A
C1252      C1253   1.404       .  A
C1252      O1258   1.320       .  A
C1253      C1254   1.404       .  A
C1253      H1262   1.082       .  S
C1254      C1257   1.363       .  A
O1255      C1256   1.333       .  A
C1256      C1257   1.393       .  A
C1257      H1263   1.082       .  S
O1258      C1259   1.332       .  A
C1259      C1260   1.394       .  A
C1260      H1264   1.082       .  S
C1265      C1270   1.380       .  A
C1265      C1266   1.406       .  A
C1265      O1271   1.321       .  A
C1266      C1267   1.405       .  A
C1266      H1277   1.082       .  S
C1267      C1276   1.364       .  A
C1267      C1268   1.380       .  A
C1268      C1269   1.405       .  A
C1268      O1274   1.322       .  A
C1269      C1270   1.405       .  A
C1269      H1278   1.082       .  S
C1270      C1273   1.364       .  A
O1271      C1272   1.332       .  A
C1272      C1273   1.392       .  A
C1273      H1279   1.083       .  S
O1274      C1275   1.332       .  A
C1275      C1276   1.391       .  A
C1276      H1280   1.083       .  S
C1281      C1286   1.380       .  A
C1281      C1282   1.405   1_556  A
C1281      O1287   1.320       .  A
C1282      C1283   1.404       .  A
C1282      H1293   1.082       .  S
C1283      C1292   1.365       .  A
C1283      C1284   1.380       .  A
C1284      C1285   1.405       .  A
C1284      O1290   1.319       .  A
C1285      C1286   1.404   1_554  A
C1285      H1294   1.082       .  S
C1286      C1289   1.365       .  A
O1287      C1288   1.331       .  A
C1288      C1289   1.391       .  A
C1289      H1295   1.083       .  S
O1290      C1291   1.332       .  A
C1291      C1292   1.391       .  A
C1292      H1296   1.083       .  S
C1297      C1302   1.380       .  A
C1297      C1298   1.406       .  A
C1297      O1303   1.322       .  A
C1298      C1299   1.406       .  A
C1298      H1309   1.082       .  S
C1299      C1308   1.366       .  A
C1299      C1300   1.380       .  A
C1300      C1301   1.401       .  A
C1300      O1306   1.317       .  A
C1301      C1302   1.400       .  A
C1301      H1310   1.082       .  S
C1302      C1305   1.358       .  A
O1303      C1304   1.332       .  A
C1304      C1305   1.391       .  A
C1305      H1311   1.083       .  S
O1306      C1307   1.330       .  A
C1307      C1308   1.393       .  A
C1308      H1312   1.082       .  S
C1313      C1318   1.379       .  A
C1313      C1314   1.412   1_565  A
C1313      O1319   1.328       .  A
C1314      C1315   1.412       .  A
C1314      H1325   1.082       .  S
C1315      C1324   1.372       .  A
C1315      C1316   1.380       .  A
C1316      C1317   1.399       .  A
C1316      O1322   1.316       .  A
C1317      C1318   1.398   1_545  A
C1317      H1326   1.082       .  S
C1318      C1321   1.355       .  A
O1319      C1320   1.336       .  A
C1320      C1321   1.390       .  A
C1321      H1327   1.083       .  S
O1322      C1323   1.329       .  A
C1323      C1324   1.396       .  A
C1324      H1328   1.082       .  S
C1329      C1334   1.380       .  A
C1329      C1330   1.406       .  A
C1329      O1335   1.321       .  A
C1330      C1331   1.405       .  A
C1330      H1341   1.082       .  S
C1331      C1340   1.366       .  A
C1331      C1332   1.380       .  A
C1332      C1333   1.402       .  A
C1332      O1338   1.318       .  A
C1333      C1334   1.401       .  A
C1333      H1342   1.082       .  S
C1334      C1337   1.361       .  A
O1335      C1336   1.332       .  A
C1336      C1337   1.390       .  A
C1337      H1343   1.083       .  S
O1338      C1339   1.330       .  A
C1339      C1340   1.393       .  A
C1340      H1344   1.082       .  S
C1345      C1350   1.380       .  A
C1345      C1346   1.400   1_565  A
C1345      O1351   1.317       .  A
C1346      C1347   1.399       .  A
C1346      H1357   1.082       .  S
C1347      C1356   1.356       .  A
C1347      C1348   1.380       .  A
C1348      C1349   1.411       .  A
C1348      O1354   1.327       .  A
C1349      C1350   1.411   1_545  A
C1349      H1358   1.082       .  S
C1350      C1353   1.371       .  A
O1351      C1352   1.330       .  A
C1352      C1353   1.396       .  A
C1353      H1359   1.082       .  S
O1354      C1355   1.335       .  A
C1355      C1356   1.390       .  A
C1356      H1360   1.083       .  S
C1361      C1366   1.381       .  A
C1361      C1362   1.403       .  A
C1361      O1367   1.321       .  A
C1362      C1363   1.403   1_556  A
C1362      H1373   1.082       .  S
C1363      C1372   1.361       .  A
C1363      C1364   1.380       .  A
C1364      C1365   1.406   1_554  A
C1364      O1370   1.323       .  A
C1365      C1366   1.406       .  A
C1365      H1374   1.082       .  S
C1366      C1369   1.364       .  A
O1367      C1368   1.330       .  A
C1368      C1369   1.393       .  A
C1369      H1375   1.082       .  S
O1370      C1371   1.332       .  A
C1371      C1372   1.391       .  A
C1372      H1376   1.083       .  S
C1377      C1382   1.381       .  A
C1377      C1378   1.404       .  A
C1377      O1383   1.320       .  A
C1378      C1379   1.403       .  A
C1378      H1389   1.082       .  S
C1379      C1388   1.362       .  A
C1379      C1380   1.381       .  A
C1380      C1381   1.404       .  A
C1380      O1386   1.320       .  A
C1381      C1382   1.404       .  A
C1381      H1390   1.082       .  S
C1382      C1385   1.363       .  A
O1383      C1384   1.331       .  A
C1384      C1385   1.392       .  A
C1385      H1391   1.082       .  S
O1386      C1387   1.331       .  A
C1387      C1388   1.391       .  A
C1388      H1392   1.083       .  S
C1393      C1398   1.380       .  A
C1393      C1394   1.403       .  A
C1393      O1399   1.320       .  A
C1394      C1395   1.403       .  A
C1394      H1405   1.082       .  S
C1395      C1404   1.361       .  A
C1395      C1396   1.380       .  A
C1396      C1397   1.410       .  A
C1396      O1402   1.326       .  A
C1397      C1398   1.409       .  A
C1397      H1406   1.082       .  S
C1398      C1401   1.369       .  A
O1399      C1400   1.331       .  A
C1400      C1401   1.395       .  A
C1401      H1407   1.082       .  S
O1402      C1403   1.335       .  A
C1403      C1404   1.393       .  A
C1404      H1408   1.083       .  S
C1409      C1414   1.381       .  A
C1409      C1410   1.403       .  A
C1409      O1415   1.317       .  A
C1410      C1411   1.402       .  A
C1410      H1421   1.082       .  S
C1411      C1420   1.363       .  A
C1411      C1412   1.381       .  A
C1412      C1413   1.402       .  A
C1412      O1418   1.316       .  A
C1413      C1414   1.400       .  A
C1413      H1422   1.082       .  S
C1414      C1417   1.361       .  A
O1415      C1416   1.330       .  A
C1416      C1417   1.389       .  A
C1417      H1423   1.083       .  S
O1418      C1419   1.329       .  A
C1419      C1420   1.392       .  A
C1420      H1424   1.083       .  S
C1425      C1430   1.381       .  A
C1425      C1426   1.404       .  A
C1425      O1431   1.317       .  A
C1426      C1427   1.402       .  A
C1426      H1437   1.082       .  S
C1427      C1436   1.365       .  A
C1427      C1428   1.381       .  A
C1428      C1429   1.401       .  A
C1428      O1434   1.314       .  A
C1429      C1430   1.399       .  A
C1429      H1438   1.082       .  S
C1430      C1433   1.361       .  A
O1431      C1432   1.331       .  A
C1432      C1433   1.389       .  A
C1433      H1439   1.083       .  S
O1434      C1435   1.329       .  A
C1435      C1436   1.391       .  A
C1436      H1440   1.082       .  S
C1441      C1446   1.380       .  A
C1441      C1442   1.403       .  A
C1441      O1447   1.319       .  A
C1442      C1443   1.402       .  A
C1442      H1453   1.082       .  S
C1443      C1452   1.360       .  A
C1443      C1444   1.380       .  A
C1444      C1445   1.404       .  A
C1444      O1450   1.320       .  A
C1445      C1446   1.404       .  A
C1445      H1454   1.082       .  S
C1446      C1449   1.363       .  A
O1447      C1448   1.331       .  A
C1448      C1449   1.391       .  A
C1449      H1455   1.082       .  S
O1450      C1451   1.331       .  A
C1451      C1452   1.392       .  A
C1452      H1456   1.083       .  S
C1457      C1462   1.381       .  A
C1457      C1458   1.402       .  A
C1457      O1463   1.319       .  A
C1458      C1459   1.402       .  A
C1458      H1469   1.082       .  S
C1459      C1468   1.358       .  A
C1459      C1460   1.382       .  A
C1460      C1461   1.397       .  A
C1460      O1466   1.316       .  A
C1461      C1462   1.397       .  A
C1461      H1470   1.083       .  S
C1462      C1465   1.353       .  A
O1463      C1464   1.330       .  A
C1464      C1465   1.388       .  A
C1465      H1471   1.083       .  S
O1466      C1467   1.327       .  A
C1467      C1468   1.391       .  A
C1468      H1472   1.083       .  S
C1473      C1478   1.381       .  A
C1473      C1474   1.400       .  A
C1473      O1479   1.320       .  A
C1474      C1475   1.401       .  A
C1474      H1485   1.082       .  S
C1475      C1484   1.356       .  A
C1475      C1476   1.381       .  A
C1476      C1477   1.404       .  A
C1476      O1482   1.323       .  A
C1477      C1478   1.405       .  A
C1477      H1486   1.082       .  S
C1478      C1481   1.360       .  A
O1479      C1480   1.329       .  A
C1480      C1481   1.393       .  A
C1481      H1487   1.083       .  S
O1482      C1483   1.332       .  A
C1483      C1484   1.390       .  A
C1484      H1488   1.083       .  S
C1489      C1494   1.381       .  A
C1489      C1490   1.405       .  A
C1489      O1495   1.321       .  A
C1490      C1491   1.404       .  A
C1490      H1501   1.082       .  S
C1491      C1500   1.363       .  A
C1491      C1492   1.380       .  A
C1492      C1493   1.405       .  A
C1492      O1498   1.321       .  A
C1493      C1494   1.404       .  A
C1493      H1502   1.082       .  S
C1494      C1497   1.363       .  A
O1495      C1496   1.331       .  A
C1496      C1497   1.391       .  A
C1497      H1503   1.083       .  S
O1498      C1499   1.332       .  A
C1499      C1500   1.391       .  A
C1500      H1504   1.083       .  S
C1505      C1510   1.380       .  A
C1505      C1506   1.403       .  A
C1505      O1511   1.318       .  A
C1506      C1507   1.402       .  A
C1506      H1517   1.082       .  S
C1507      C1516   1.363       .  A
C1507      C1508   1.380       .  A
C1508      C1509   1.405       .  A
C1508      O1514   1.319       .  A
C1509      C1510   1.404       .  A
C1509      H1518   1.082       .  S
C1510      C1513   1.365       .  A
O1511      C1512   1.330       .  A
C1512      C1513   1.391       .  A
C1513      H1519   1.082       .  S
O1514      C1515   1.332       .  A
C1515      C1516   1.390       .  A
C1516      H1520   1.083       .  S
C1521      C1526   1.379       .  A
C1521      C1522   1.411       .  A
C1521      O1527   1.327       .  A
C1522      C1523   1.411       .  A
C1522      H1533   1.082       .  S
C1523      C1532   1.370       .  A
C1523      C1524   1.380       .  A
C1524      C1525   1.401       .  A
C1524      O1530   1.319       .  A
C1525      C1526   1.401       .  A
C1525      H1534   1.082       .  S
C1526      C1529   1.358       .  A
O1527      C1528   1.336       .  A
C1528      C1529   1.391       .  A
C1529      H1535   1.083       .  S
O1530      C1531   1.330       .  A
C1531      C1532   1.396       .  A
C1532      H1536   1.082       .  S
C1537      C1542   1.379   1_554  A
C1537      C1538   1.413   1_565  A
C1537      O1543   1.328   1_554  A
C1538      C1539   1.413       .  A
C1538      H1549   1.082       .  S
C1539      C1548   1.373       .  A
C1539      C1540   1.380       .  A
C1540      C1541   1.397   1_554  A
C1540      O1546   1.314       .  A
C1541      C1542   1.397   1_545  A
C1541      H1550   1.083       .  S
C1542      C1545   1.354       .  A
O1543      C1544   1.336       .  A
C1544      C1545   1.389       .  A
C1545      H1551   1.083       .  S
O1546      C1547   1.328       .  A
C1547      C1548   1.397       .  A
C1548      H1552   1.082       .  S
C1553      C1558   1.380       .  A
C1553      C1554   1.405       .  A
C1553      O1559   1.319       .  A
C1554      C1555   1.403       .  A
C1554      H1565   1.082       .  S
C1555      C1564   1.365       .  A
C1555      C1556   1.380       .  A
C1556      C1557   1.405       .  A
C1556      O1562   1.319       .  A
C1557      C1558   1.403       .  A
C1557      H1566   1.082       .  S
C1558      C1561   1.364       .  A
O1559      C1560   1.331       .  A
C1560      C1561   1.392       .  A
C1561      H1567   1.083       .  S
O1562      C1563   1.331       .  A
C1563      C1564   1.392       .  A
C1564      H1568   1.082       .  S
C1569      C1574   1.381       .  A
C1569      C1570   1.402       .  A
C1569      O1575   1.321       .  A
C1570      C1571   1.403       .  A
C1570      H1581   1.083       .  S
C1571      C1580   1.358       .  A
C1571      C1572   1.381       .  A
C1572      C1573   1.403       .  A
C1572      O1578   1.322       .  A
C1573      C1574   1.404       .  A
C1573      H1582   1.083       .  S
C1574      C1577   1.359       .  A
O1575      C1576   1.330       .  A
C1576      C1577   1.392       .  A
C1577      H1583   1.083       .  S
O1578      C1579   1.331       .  A
C1579      C1580   1.391       .  A
C1580      H1584   1.083       .  S
C1585      C1590   1.380       .  A
C1585      C1586   1.408       .  A
C1585      O1591   1.323       .  A
C1586      C1587   1.408       .  A
C1586      H1597   1.082       .  S
C1587      C1596   1.368       .  A
C1587      C1588   1.380       .  A
C1588      C1589   1.401       .  A
C1588      O1594   1.317       .  A
C1589      C1590   1.400       .  A
C1589      H1598   1.082       .  S
C1590      C1593   1.359       .  A
O1591      C1592   1.334       .  A
C1592      C1593   1.391       .  A
C1593      H1599   1.083       .  S
O1594      C1595   1.330       .  A
C1595      C1596   1.394       .  A
C1596      H1600   1.082       .  S
C1601      C1606   1.380       .  A
C1601      C1602   1.411       .  A
C1601      O1607   1.327       .  A
C1602      C1603   1.411   1_545  A
C1602      H1613   1.082       .  S
C1603      C1612   1.371       .  A
C1603      C1604   1.380       .  A
C1604      C1605   1.399       .  A
C1604      O1610   1.316       .  A
C1605      C1606   1.399   1_565  A
C1605      H1614   1.082       .  S
C1606      C1609   1.355       .  A
O1607      C1608   1.335       .  A
C1608      C1609   1.390       .  A
C1609      H1615   1.083       .  S
O1610      C1611   1.329       .  A
C1611      C1612   1.396       .  A
C1612      H1616   1.082       .  S
C1617      C1622   1.381       .  A
C1617      C1618   1.404       .  A
C1617      O1623   1.318       .  A
C1618      C1619   1.403       .  A
C1618      H1629   1.082       .  S
C1619      C1628   1.364       .  A
C1619      C1620   1.381       .  A
C1620      C1621   1.401       .  A
C1620      O1626   1.315       .  A
C1621      C1622   1.399       .  A
C1621      H1630   1.082       .  S
C1622      C1625   1.361       .  A
O1623      C1624   1.331       .  A
C1624      C1625   1.389       .  A
C1625      H1631   1.083       .  S
O1626      C1627   1.329       .  A
C1627      C1628   1.391       .  A
C1628      H1632   1.083       .  S
C1633      C1638   1.381       .  A
C1633      C1634   1.404       .  A
C1633      O1639   1.320       .  A
C1634      C1635   1.403       .  A
C1634      H1645   1.082       .  S
C1635      C1644   1.362       .  A
C1635      C1636   1.380       .  A
C1636      C1637   1.405       .  A
C1636      O1642   1.321       .  A
C1637      C1638   1.405       .  A
C1637      H1646   1.082       .  S
C1638      C1641   1.364       .  A
O1639      C1640   1.330       .  A
C1640      C1641   1.392       .  A
C1641      H1647   1.082       .  S
O1642      C1643   1.332       .  A
C1643      C1644   1.391       .  A
C1644      H1648   1.082       .  S
C1649      C1654   1.380       .  A
C1649      C1650   1.406       .  A
C1649      O1655   1.320       .  A
C1650      C1651   1.405       .  A
C1650      H1661   1.082       .  S
C1651      C1660   1.365       .  A
C1651      C1652   1.380       .  A
C1652      C1653   1.404       .  A
C1652      O1658   1.319       .  A
C1653      C1654   1.403       .  A
C1653      H1662   1.082       .  S
C1654      C1657   1.364       .  A
O1655      C1656   1.332       .  A
C1656      C1657   1.391       .  A
C1657      H1663   1.083       .  S
O1658      C1659   1.331       .  A
C1659      C1660   1.392       .  A
C1660      H1664   1.083       .  S
C1665      C1670   1.381       .  A
C1665      C1666   1.404       .  A
C1665      O1671   1.321       .  A
C1666      C1667   1.404       .  A
C1666      H1677   1.083       .  S
C1667      C1676   1.361       .  A
C1667      C1668   1.381       .  A
C1668      C1669   1.403       .  A
C1668      O1674   1.320       .  A
C1669      C1670   1.403       .  A
C1669      H1678   1.083       .  S
C1670      C1673   1.360       .  A
O1671      C1672   1.331       .  A
C1672      C1673   1.391       .  A
C1673      H1679   1.083       .  S
O1674      C1675   1.330       .  A
C1675      C1676   1.391       .  A
C1676      H1680   1.083       .  S
