geometry optimzed in LAMMPS
_audit_creation_date              2020-12-01 
_audit_creation_method            'lammps2cif' 
_symmetry_space_group_name_H-M    'P1' 
_symmetry_Int_Tables_number       1 
_symmetry_cell_setting            triclinic 
loop_ 
_symmetry_equiv_pos_as_xyz 
  x,y,z 
_cell_length_a                    46.95296588 
_cell_length_b                    46.97716657527688 
_cell_length_c                    26.74483306988967 
_cell_angle_alpha                 90.10985877524784 
_cell_angle_beta                  89.5806668556249 
_cell_angle_gamma                 89.33365028089747 
loop_ 
_atom_site_label 
_atom_site_type_symbol 
_atom_site_fract_x 
_atom_site_fract_y 
_atom_site_fract_z 
_atom_site_charge 
O1          O  0.80889219  0.38136867  0.44812510    -0.81400
O2          O  0.93342104  0.38497056  0.39624287    -0.66100
O3          O  0.85759248  0.35900734  0.41511550    -1.12700
C4          C  0.88269622  0.36684199  0.58826485     1.05500
O5          O  0.94764371  0.35208058  0.44963732    -0.79300
O6          O  0.91578304  0.32323785  0.51968673    -0.66900
Ni7        Ni  0.82647312  0.37842860  0.38480228     1.34900
C8          C  0.89303810  0.30931329  0.51336470     0.84200
O9          O  0.89125575  0.37150185  0.33173729    -0.79800
O10         O  0.84369655  0.37588731  0.32020245    -0.90100
C11         C  0.95317491  0.36971066  0.41476102     0.83800
O12         O  0.83843983  0.41678172  0.39197751    -0.68300
O13         O  0.90813818  0.37072031  0.57224376    -0.87600
C14         C  0.86243685  0.42833455  0.39717543     0.84600
C15         C  0.86915155  0.37317336  0.30384605     1.06200
H16         H  0.89328139  0.39549804  0.48502625     0.38000
O17         O  0.89494206  0.37569474  0.47550934    -1.10300
O18         O  0.87148570  0.32017557  0.49126548    -0.66900
Ni19       Ni  0.85849335  0.35955311  0.48743904     1.26300
O20         O  0.88527731  0.41377337  0.40149174    -0.67200
O21         O  0.86153871  0.36168324  0.55953169    -0.79400
C22         C  0.80157159  0.35817687  0.46762035     0.84000
O23         O  0.82012973  0.34459718  0.49275881    -0.66600
Ni24       Ni  0.92693374  0.36178001  0.51011666     1.27400
Ni25       Ni  0.89460143  0.37352204  0.40373845     1.26100
H26         H  0.85737413  0.33945921  0.40381864     0.38500
O27         O  0.80862867  0.38402171  0.94365310    -0.81400
O28         O  0.93381000  0.38356991  0.89998773    -0.66100
O29         O  0.85721087  0.35936966  0.91693058    -1.12700
C30         C  0.87927094  0.37518387  0.08949855     1.05500
O31         O  0.94624662  0.35262945  0.95811034    -0.79300
O32         O  0.91248999  0.32800197  0.02971669    -0.66900
Ni33       Ni  0.82710913  0.37757447  0.88184535     1.34900
C34         C  0.89009890  0.31369154  0.02236582     0.84200
O35         O  0.89273403  0.36826174  0.83419702    -0.79800
O36         O  0.84553512  0.37166867  0.81868617    -0.90100
C37         C  0.95285468  0.36880083  0.92181534     0.83800
O38         O  0.83945498  0.41593201  0.88435952    -0.68300
O39         O  0.90494112  0.37814548  0.07440794    -0.87600
C40         C  0.86330008  0.42757646  0.89126813     0.84600
C41         C  0.87141408  0.36887518  0.80433865     1.06200
H42         H  0.89198765  0.39824081  0.98412143     0.38000
O43         O  0.89355153  0.37808510  0.97725217    -1.10300
O44         O  0.86885427  0.32387749  0.99850320    -0.66900
Ni45       Ni  0.85662603  0.36313488  0.98909987     1.26300
O46         O  0.88576585  0.41304615  0.89922901    -0.67200
O47         O  0.85848985  0.36829555  0.06096241    -0.79400
C48         C  0.80015978  0.36213990  0.96610264     0.84000
O49         O  0.81781394  0.34925140  0.99417974    -0.66600
Ni50       Ni  0.92467218  0.36568007  0.01547279     1.27400
Ni51       Ni  0.89462561  0.37294041  0.90609115     1.26100
H52         H  0.85698840  0.33938004  0.90833264     0.38500
O53         O  0.81176049  0.13089866  0.19701729    -0.81400
O54         O  0.93677427  0.12807032  0.23662710    -0.66100
O55         O  0.86072417  0.15588255  0.22030358    -1.12700
C56         C  0.88346085  0.14308558  0.04699863     1.05500
O57         O  0.94895426  0.16021419  0.18144158    -0.79300
O58         O  0.91630096  0.18867866  0.11443797    -0.66900
Ni59       Ni  0.83016879  0.14013634  0.25723452     1.34900
C60         C  0.89305216  0.20229246  0.11991683     0.84200
O61         O  0.89559409  0.14458587  0.30297005    -0.79800
O62         O  0.84830472  0.14844995  0.31868414    -0.90100
C63         C  0.95608051  0.14201111  0.21431673     0.83800
O64         O  0.84242466  0.10154864  0.26161625    -0.68300
O65         O  0.90938378  0.14147082  0.06127031    -0.87600
C66         C  0.86547316  0.08852044  0.25120413     0.84600
C67         C  0.87416505  0.14763570  0.33272729     1.06200
H68         H  0.89667660  0.11651511  0.15155204     0.38000
O69         O  0.89740317  0.13657972  0.15937950    -1.10300
O70         O  0.87072390  0.19086063  0.13812785    -0.66900
Ni71       Ni  0.86012934  0.15142639  0.14851376     1.26300
O72         O  0.88761156  0.10135048  0.23641478    -0.67200
O73         O  0.86220256  0.14621075  0.07703878    -0.79400
C74         C  0.80297789  0.15140270  0.17088657     0.84000
O75         O  0.82086314  0.16447735  0.14363962    -0.66600
Ni76       Ni  0.92842828  0.15028591  0.12225057     1.27400
Ni77       Ni  0.89786923  0.14080305  0.23084981     1.26100
H78         H  0.86110095  0.17596984  0.22808390     0.38500
O79         O  0.80769648  0.13265789  0.69478490    -0.81400
O80         O  0.93264990  0.12531775  0.73678759    -0.66100
O81         O  0.85751638  0.15482220  0.71838753    -1.12700
C82         C  0.88228053  0.13939962  0.54646252     1.05500
O83         O  0.94645748  0.15747587  0.68216806    -0.79300
O84         O  0.91502275  0.18505421  0.61098141    -0.66900
Ni85       Ni  0.82634685  0.14027630  0.75542422     1.34900
C86         C  0.89211584  0.19936323  0.61615622     0.84200
O87         O  0.89181604  0.14323213  0.80127273    -0.79800
O88         O  0.84478500  0.14683514  0.81760526    -0.90100
C89         C  0.95219790  0.14038434  0.71767063     0.83800
O90         O  0.83685636  0.10123428  0.75780908    -0.68300
O91         O  0.90773078  0.13639474  0.56229498    -0.87600
C92         C  0.85934753  0.08718295  0.74831855     0.84600
C93         C  0.87071167  0.14575157  0.83158859     1.06200
H94         H  0.89271650  0.11401757  0.65121379     0.38000
O95         O  0.89408421  0.13407959  0.65872387    -1.10300
O96         O  0.86965392  0.18910242  0.63593437    -0.66900
Ni97       Ni  0.85745380  0.15025199  0.64637882     1.26300
O98         O  0.88252399  0.09926606  0.73606558    -0.67200
O99         O  0.86050184  0.14488359  0.57462668    -0.79400
C100        C  0.80018916  0.15377987  0.66897738     0.84000
O101        O  0.81870306  0.16513078  0.64050505    -0.66600
Ni102      Ni  0.92616360  0.14653460  0.62294151     1.27400
Ni103      Ni  0.89408561  0.13862879  0.72977186     1.26100
H104        H  0.85851914  0.17490324  0.72599477     0.38500
O105        O  0.33840440  0.46252901  0.07272202    -0.81400
O106        O  0.33685805  0.33380614  0.11997785    -0.66100
O107        O  0.36291692  0.41054724  0.10020936    -1.12700
C108        C  0.35524197  0.38436099  0.92797736     1.05500
O109        O  0.37096928  0.32426529  0.06738466    -0.79300
O110        O  0.40085548  0.35363150  0.00224138    -0.66900
Ni111      Ni  0.34711856  0.44244864  0.13366581     1.34900
C112        C  0.41350658  0.37653424  0.01270773     0.84200
O113        O  0.35388438  0.37682267  0.18489743    -0.79800
O114        O  0.35503662  0.42461365  0.19640657    -0.90100
C115        C  0.34983999  0.31577642  0.09208712     0.83800
O116        O  0.30857434  0.43048069  0.13956130    -0.68300
O117        O  0.35458285  0.35861703  0.94287721    -0.87600
C118        C  0.29665401  0.40642049  0.13726659     0.84600
C119        C  0.35588752  0.39908990  0.21277939     1.06200
H120        H  0.32547125  0.37285635  0.03310521     0.38000
O121        O  0.34549622  0.37252878  0.04123594    -1.10300
O122        O  0.39996818  0.39893867  0.02570387    -0.66900
Ni123      Ni  0.36003360  0.40934855  0.02887666     1.26300
O124        O  0.30954898  0.38374092  0.12296902    -0.67200
O125        O  0.35730831  0.40589860  0.95714987    -0.79400
C126        C  0.35627462  0.46769261  0.03800527     0.84000
O127        O  0.37201222  0.44785370  0.02053198    -0.66600
Ni128      Ni  0.36241417  0.34150329  0.00580462     1.27400
Ni129      Ni  0.34921908  0.37320924  0.11329629     1.26100
H130        H  0.38284890  0.41037171  0.10895164     0.38500
O131        O  0.34406467  0.46270634  0.58069480    -0.81400
O132        O  0.32996040  0.33498263  0.61591687    -0.66100
O133        O  0.36485364  0.40827126  0.60080538    -1.12700
C134        C  0.35520489  0.38598699  0.42780673     1.05500
O135        O  0.36500500  0.32267306  0.56677911    -0.79300
O136        O  0.39944910  0.35099228  0.50645263    -0.66900
Ni137      Ni  0.35378008  0.44041581  0.63866679     1.34900
C138        C  0.41316509  0.37369148  0.51275588     0.84200
O139        O  0.35020723  0.37446472  0.68359611    -0.79800
O140        O  0.36274558  0.42004999  0.69845682    -0.90100
C141        C  0.34255791  0.31590038  0.58970568     0.83800
O142        O  0.31476638  0.43167746  0.65040862    -0.68300
O143        O  0.35592804  0.36017840  0.44243008    -0.87600
C144        C  0.29906776  0.41040024  0.64245194     0.84600
C145        C  0.35702461  0.39483065  0.71312721     1.06200
H146        H  0.32447020  0.37475691  0.53039593     0.38000
O147        O  0.34428760  0.37330680  0.53969477    -1.10300
O148        O  0.40059248  0.39722412  0.52256579    -0.66900
Ni149      Ni  0.36107114  0.40936346  0.52938038     1.26300
O150        O  0.30824658  0.38818386  0.61940301    -0.67200
O151        O  0.35691761  0.40752800  0.45735141    -0.79400
C152        C  0.36137107  0.46768407  0.54499965     0.84000
O153        O  0.37500397  0.44745660  0.52372097    -0.66600
Ni154      Ni  0.36019589  0.34161823  0.50519164     1.27400
Ni155      Ni  0.34665161  0.37274143  0.61168551     1.26100
H156        H  0.38473652  0.40520378  0.60839968     0.38500
O157        O  0.14432610  0.45999227  0.30372276    -0.81400
O158        O  0.15575293  0.33342300  0.26663877    -0.66100
O159        O  0.12137632  0.40724262  0.28465861    -1.12700
C160        C  0.13066685  0.38468680  0.45755831     1.05500
O161        O  0.12248776  0.32093520  0.31864442    -0.79300
O162        O  0.08847430  0.35036297  0.37735449    -0.66900
Ni163      Ni  0.13206995  0.43884901  0.24627099     1.34900
C164        C  0.07433557  0.37305249  0.37098263     0.84200
O165        O  0.13397529  0.37338652  0.20076043    -0.79800
O166        O  0.12036378  0.41911393  0.18743148    -0.90100
C167        C  0.14440725  0.31436033  0.29368020     0.83800
O168        O  0.17045915  0.42829664  0.22963788    -0.68300
O169        O  0.13120492  0.35891419  0.44264415    -0.87600
C170        C  0.18601317  0.40648835  0.23765710     0.84600
C171        C  0.12566457  0.39379547  0.17210904     1.06200
H172        H  0.16254676  0.37269079  0.35285299     0.38000
O173        O  0.14256369  0.37165985  0.34460448    -1.10300
O174        O  0.08641511  0.39681632  0.36288753    -0.66900
Ni175      Ni  0.12600076  0.40823352  0.35590439     1.26300
O176        O  0.17716716  0.38555638  0.26353562    -0.67200
O177        O  0.13017406  0.40626962  0.42805399    -0.79400
C178        C  0.12805699  0.46632317  0.34047796     0.84000
O179        O  0.11323992  0.44720161  0.36181025    -0.66600
Ni180      Ni  0.12749301  0.34025927  0.37977193     1.27400
Ni181      Ni  0.13895173  0.37130307  0.27258613     1.26100
H182        H  0.10138226  0.40481708  0.27779695     0.38500
O183        O  0.14490541  0.46288579  0.81292358    -0.81400
O184        O  0.15388414  0.33546415  0.76342674    -0.66100
O185        O  0.12279000  0.41038868  0.78639479    -1.12700
C186        C  0.13137867  0.38167057  0.95748305     1.05500
O187        O  0.11888869  0.32444714  0.81261414    -0.79300
O188        O  0.08691104  0.35161549  0.87951353    -0.66900
Ni189      Ni  0.13601046  0.44285738  0.75209839     1.34900
C190        C  0.07367361  0.37500253  0.87385235     0.84200
O191        O  0.13536496  0.37775636  0.70025860    -0.79800
O192        O  0.12816947  0.42505637  0.68899271    -0.90100
C193        C  0.14080315  0.31674119  0.78857057     0.83800
O194        O  0.17494198  0.43206997  0.74303745    -0.68300
O195        O  0.13192092  0.35622087  0.94071373    -0.87600
C196        C  0.18880734  0.40876555  0.74615004     0.84600
C197        C  0.13154808  0.39966654  0.67240510     1.06200
H198        H  0.16182757  0.37251222  0.85283267     0.38000
O199        O  0.14191791  0.37222028  0.84396603    -1.10300
O200        O  0.08652694  0.39789867  0.86292671    -0.66900
Ni201      Ni  0.12622624  0.40863775  0.85810064     1.26300
O202        O  0.17805199  0.38635194  0.76496015    -0.67200
O203        O  0.12947937  0.40398685  0.92986211    -0.79400
C204        C  0.12722183  0.46750735  0.84834965     0.84000
O205        O  0.11340680  0.44721189  0.86802992    -0.66600
Ni206      Ni  0.12578881  0.34027368  0.87613895     1.27400
Ni207      Ni  0.13903717  0.37391155  0.77188551     1.26100
H208        H  0.10282005  0.40921900  0.77826961     0.38500
O209        O  0.17999279  0.63016610  0.43278189    -0.81400
O210        O  0.05538693  0.63233366  0.38822640    -0.66100
O211        O  0.13188869  0.65616006  0.40606722    -1.12700
C212        C  0.10782390  0.64188543  0.57858798     1.05500
O213        O  0.04237581  0.66400909  0.44537711    -0.79300
O214        O  0.07540583  0.68960544  0.51606159    -0.66900
Ni215      Ni  0.16227716  0.63767877  0.37113777     1.34900
C216        C  0.09837107  0.70310795  0.50976512     0.84200
O217        O  0.09736393  0.64695508  0.32299910    -0.79800
O218        O  0.14477309  0.64426743  0.30812738    -0.90100
C219        C  0.03610366  0.64696978  0.41021916     0.83800
O220        O  0.14943418  0.59950254  0.37163940    -0.68300
O221        O  0.08201461  0.64033874  0.56375650    -0.87600
C222        C  0.12556086  0.58792707  0.37899196     0.84600
C223        C  0.11905238  0.64654539  0.29346394     1.06200
H224        H  0.09535031  0.61808702  0.47323736     0.38000
O225        O  0.09443480  0.63822365  0.46605706    -1.10300
O226        O  0.12037658  0.69193125  0.48872215    -0.66900
Ni227      Ni  0.13159189  0.65227459  0.47802604     1.26300
O228        O  0.10321252  0.60252370  0.38846994    -0.67200
O229        O  0.12897180  0.64675629  0.54928336    -0.79400
C230        C  0.18867450  0.65144872  0.45659685     0.84000
O231        O  0.17072264  0.66498949  0.48371813    -0.66600
Ni232      Ni  0.06309792  0.65180866  0.50372457     1.27400
Ni233      Ni  0.09449139  0.64280522  0.39480187     1.26100
H234        H  0.13234624  0.67615523  0.39769921     0.38500
O235        O  0.18315525  0.63665038  0.93355692    -0.81400
O236        O  0.05576597  0.63216751  0.88942848    -0.66100
O237        O  0.13242015  0.65706726  0.90347945    -1.12700
C238        C  0.10915543  0.64832225  0.07768889     1.05500
O239        O  0.04269852  0.66438986  0.94536975    -0.79300
O240        O  0.07497168  0.69161708  0.01453448    -0.66900
Ni241      Ni  0.16283683  0.63624259  0.87272851     1.34900
C242        C  0.09647640  0.70634669  0.00307706     0.84200
O243        O  0.09725832  0.64586338  0.82273053    -0.79800
O244        O  0.14373709  0.63521263  0.80980063    -0.90100
C245        C  0.03647670  0.64740233  0.91017642     0.83800
O246        O  0.15105522  0.59866694  0.88846726    -0.68300
O247        O  0.08393995  0.64298588  0.06275612    -0.87600
C248        C  0.12655090  0.58778548  0.88933660     0.84600
C249        C  0.11860130  0.64034895  0.79402301     1.06200
H250        H  0.09805317  0.62032624  0.97444065     0.38000
O251        O  0.09580356  0.64018638  0.96584439    -1.10300
O252        O  0.11781264  0.69607524  0.97887754    -0.66900
Ni253      Ni  0.13202904  0.65711724  0.97561567     1.26300
O254        O  0.10386892  0.60285262  0.88905051    -0.67200
O255        O  0.12959179  0.65538513  0.04807086    -0.79400
C256        C  0.18921182  0.66033591  0.95282513     0.84000
O257        O  0.17003991  0.67323302  0.97842443    -0.66600
Ni258      Ni  0.06413813  0.65321889  0.00327395     1.27400
Ni259      Ni  0.09496909  0.64311610  0.89441405     1.26100
H260        H  0.13304433  0.67646374  0.89155043     0.38500
O261        O  0.18394729  0.87678275  0.19111116    -0.81400
O262        O  0.05767863  0.88539135  0.23613353    -0.66100
O263        O  0.13322313  0.85677222  0.21777312    -1.12700
C264        C  0.11159242  0.87357505  0.04526645     1.05500
O265        O  0.04357310  0.85668092  0.17594973    -0.79300
O266        O  0.07610404  0.83029438  0.10330261    -0.66900
Ni267      Ni  0.16422409  0.87314281  0.25226343     1.34900
C268        C  0.09756404  0.81423999  0.11124030     0.84200
O269        O  0.09804784  0.86623667  0.30015175    -0.79800
O270        O  0.14517224  0.87001299  0.31506356    -0.90100
C271        C  0.03802208  0.87200732  0.21416986     0.83800
O272        O  0.15380679  0.91218681  0.24786924    -0.68300
O273        O  0.08658042  0.88016507  0.06101770    -0.87600
C274        C  0.12982834  0.92466095  0.24642835     0.84600
C275        C  0.11941891  0.86740628  0.32965824     1.06200
H276        H  0.10053072  0.89859107  0.15241350     0.38000
O277        O  0.09773818  0.87852286  0.15824492    -1.10300
O278        O  0.11855398  0.82244055  0.13745638    -0.66900
Ni279      Ni  0.13361029  0.86037566  0.14597625     1.26300
O280        O  0.10662621  0.91164810  0.23960328    -0.67200
O281        O  0.13181112  0.86510316  0.07401355    -0.79400
C282        C  0.19021096  0.85402743  0.16841477     0.84000
O283        O  0.17133818  0.84296352  0.14080404    -0.66600
Ni284      Ni  0.06605223  0.86875021  0.11941091     1.27400
Ni285      Ni  0.09635307  0.87237684  0.22903744     1.26100
H286        H  0.13277839  0.83680237  0.22634439     0.38500
O287        O  0.18175619  0.88268532  0.68819132    -0.81400
O288        O  0.05611019  0.88699752  0.73540935    -0.66100
O289        O  0.13240712  0.86019983  0.71767421    -1.12700
C290        C  0.10906779  0.87082678  0.54475227     1.05500
O291        O  0.04242133  0.85522599  0.67976728    -0.79300
O292        O  0.07565899  0.82687111  0.61016545    -0.66900
Ni293      Ni  0.16307301  0.87847113  0.75038361     1.34900
C294        C  0.09857071  0.81258192  0.61576137     0.84200
O295        O  0.09766092  0.87230580  0.80069594    -0.79800
O296        O  0.14506531  0.87484489  0.81407977    -0.90100
C297        C  0.03680086  0.87171339  0.71650664     0.83800
O298        O  0.15080421  0.91715448  0.74555339    -0.68300
O299        O  0.08343164  0.87476465  0.56007292    -0.87600
C300        C  0.12672759  0.92909967  0.73962113     0.84600
C301        C  0.11938978  0.87312797  0.82952415     1.06200
H302        H  0.09687410  0.89821856  0.64871061     0.38000
O303        O  0.09541817  0.87830293  0.65717584    -1.10300
O304        O  0.12005410  0.82289947  0.63827664    -0.66900
Ni305      Ni  0.13222723  0.86216782  0.64555434     1.26300
O306        O  0.10425034  0.91494676  0.73267564    -0.67200
O307        O  0.13004199  0.86563319  0.57390456    -0.79400
C308        C  0.18920503  0.86015580  0.66580978     0.84000
O309        O  0.17072507  0.84721226  0.64019639    -0.66600
Ni310      Ni  0.06397173  0.86541245  0.62085699     1.27400
Ni311      Ni  0.09511435  0.87508117  0.72863919     1.26100
H312        H  0.13263289  0.84043398  0.72762871     0.38500
O313        O  0.64957942  0.55219537  0.07628591    -0.81400
O314        O  0.65874015  0.68023510  0.11890689    -0.66100
O315        O  0.62747330  0.60566705  0.10192579    -1.12700
C316        C  0.63597698  0.62939364  0.92898320     1.05500
O317        O  0.62460317  0.69166292  0.06835958    -0.79300
O318        O  0.59216835  0.66349890  0.00587870    -0.66900
Ni319      Ni  0.64087850  0.57340422  0.13655811     1.34900
C320        C  0.57852920  0.64114233  0.01563557     0.84200
O321        O  0.63930495  0.63958644  0.18500925    -0.79800
O322        O  0.63276476  0.59246597  0.19839516    -0.90100
C323        C  0.64639661  0.69889151  0.09208998     0.83800
O324        O  0.67983084  0.58351692  0.14520530    -0.68300
O325        O  0.63704350  0.65520220  0.94373988    -0.87600
C326        C  0.69339135  0.60676322  0.14276241     0.84600
C327        C  0.63532082  0.61811868  0.21377499     1.06200
H328        H  0.66698436  0.64043303  0.03231337     0.38000
O329        O  0.64705168  0.64178822  0.04138176    -1.10300
O330        O  0.59107976  0.61796802  0.02728924    -0.66900
Ni331      Ni  0.63055011  0.60570240  0.03055412     1.26300
O332        O  0.68279147  0.62894618  0.12222991    -0.67200
O333        O  0.63372766  0.60811197  0.95863977    -0.79400
C334        C  0.63155830  0.54751565  0.04191977     0.84000
O335        O  0.61672190  0.56775147  0.02398802    -0.66600
Ni336      Ni  0.63126724  0.67335632  0.00664298     1.27400
Ni337      Ni  0.64376431  0.64196044  0.11345512     1.26100
H338        H  0.60756759  0.60742355  0.11095513     0.38500
O339        O  0.64936772  0.55002852  0.57786844    -0.81400
O340        O  0.65845364  0.67961437  0.61695113    -0.66100
O341        O  0.62794743  0.60432699  0.60125391    -1.12700
C342        C  0.63664988  0.62723178  0.42838697     1.05500
O343        O  0.62443645  0.69133877  0.56600779    -0.79300
O344        O  0.59183248  0.66126087  0.50595951    -0.66900
Ni345      Ni  0.64146435  0.57242419  0.63714407     1.34900
C346        C  0.57898409  0.63825175  0.51470589     0.84200
O347        O  0.63894731  0.63936696  0.68373660    -0.79800
O348        O  0.63421785  0.59230388  0.69857763    -0.90100
C349        C  0.64594376  0.69849612  0.59068014     0.83800
O350        O  0.68063420  0.58232565  0.64286761    -0.68300
O351        O  0.63658821  0.65312846  0.44267340    -0.87600
C352        C  0.69414692  0.60549022  0.63911984     0.84600
C353        C  0.63562179  0.61817455  0.71331206     1.06200
H354        H  0.66731295  0.63952631  0.53142649     0.38000
O355        O  0.64733076  0.64049345  0.54032719    -1.10300
O356        O  0.59210483  0.61528635  0.52525061    -0.66900
Ni357      Ni  0.63155507  0.60386736  0.52985874     1.26300
O358        O  0.68291753  0.62828641  0.62167645    -0.67200
O359        O  0.63520332  0.60589762  0.45805768    -0.79400
C360        C  0.63179651  0.54531529  0.54276062     0.84000
O361        O  0.61787509  0.56572480  0.52334470    -0.66600
Ni362      Ni  0.63090653  0.67177514  0.50516501     1.27400
Ni363      Ni  0.64381481  0.64104942  0.61219070     1.26100
H364        H  0.60797020  0.60594336  0.60982623     0.38500
O365        O  0.84453903  0.55350085  0.32103945    -0.81400
O366        O  0.83441777  0.68141600  0.27535565    -0.66100
O367        O  0.86601504  0.60637872  0.29416801    -1.12700
C368        C  0.85820629  0.63212803  0.46697489     1.05500
O369        O  0.86850599  0.69276133  0.32581790    -0.79300
O370        O  0.90114945  0.66504033  0.38827442    -0.66900
Ni371      Ni  0.85307752  0.57392299  0.26022421     1.34900
C372        C  0.91483506  0.64246101  0.37793392     0.84200
O373        O  0.85385117  0.63964282  0.20982172    -0.79800
O374        O  0.86090661  0.59222991  0.19782046    -0.90100
C375        C  0.84695802  0.70018372  0.30122816     0.83800
O376        O  0.81406272  0.58442150  0.25191448    -0.68300
O377        O  0.85648100  0.65782968  0.45180328    -0.87600
C378        C  0.79995362  0.60754154  0.25558931     0.84600
C379        C  0.85801036  0.61770672  0.18174138     1.06200
H380        H  0.82654179  0.64248819  0.36325158     0.38000
O381        O  0.84643913  0.64348220  0.35399887    -1.10300
O382        O  0.90257165  0.61916652  0.36768844    -0.66900
Ni383      Ni  0.86327830  0.60720866  0.36571334     1.26300
O384        O  0.81048576  0.63029288  0.27366415    -0.67200
O385        O  0.86069322  0.61052921  0.43775762    -0.79400
C386        C  0.86267896  0.54870449  0.35528524     0.84000
O387        O  0.87729910  0.56888875  0.37314779    -0.66600
Ni388      Ni  0.86193228  0.67522022  0.38806017     1.27400
Ni389      Ni  0.84948774  0.64285000  0.28169067     1.26100
H390        H  0.88587581  0.60778371  0.28492095     0.38500
O391        O  0.84462117  0.55393909  0.81462765    -0.81400
O392        O  0.82879800  0.68039672  0.77991429    -0.66100
O393        O  0.86593265  0.60780722  0.79514314    -1.12700
C394        C  0.86126396  0.63083742  0.96713446     1.05500
O395        O  0.86370030  0.69458216  0.82633439    -0.79300
O396        O  0.90203464  0.66466757  0.87556304    -0.66900
Ni397      Ni  0.85587812  0.57585185  0.75704162     1.34900
C398        C  0.91487802  0.64082368  0.87447617     0.84200
O399        O  0.85040299  0.64102959  0.71208058    -0.79800
O400        O  0.86631131  0.59614948  0.69769222    -0.90100
C401        C  0.84025465  0.69992487  0.80552020     0.83800
O402        O  0.81718574  0.58533138  0.74254467    -0.68300
O403        O  0.86398916  0.65623725  0.95129123    -0.87600
C404        C  0.80091183  0.60657401  0.75126662     0.84600
C405        C  0.85903722  0.62104406  0.68262225     1.06200
H406        H  0.82578294  0.64328920  0.86719780     0.38000
O407        O  0.84546090  0.64359368  0.85635074    -1.10300
O408        O  0.90138304  0.61752877  0.87288876    -0.66900
Ni409      Ni  0.86174405  0.60692852  0.86657972     1.26300
O410        O  0.80898956  0.62744032  0.77828993    -0.67200
O411        O  0.85777461  0.60924791  0.93839464    -0.79400
C412        C  0.86047082  0.54856728  0.85196403     0.84000
O413        O  0.87473758  0.56817244  0.87255048    -0.66600
Ni414      Ni  0.86338056  0.67490226  0.88786647     1.27400
Ni415      Ni  0.84700330  0.64320299  0.78416666     1.26100
H416        H  0.88578474  0.61089858  0.78740646     0.38500
O417        O  0.64678858  0.95950885  0.05218505    -0.81400
O418        O  0.65631973  0.83262109  0.01770167    -0.66100
O419        O  0.62352904  0.90721492  0.03477384    -1.12700
C420        C  0.63278355  0.88493073  0.20747258     1.05500
O421        O  0.62202515  0.82139397  0.06824411    -0.79300
O422        O  0.58812952  0.85236047  0.12506018    -0.66900
Ni423      Ni  0.63430652  0.93827823  0.99519375     1.34900
C424        C  0.57568384  0.87624206  0.12035296     0.84200
O425        O  0.63504283  0.87232296  0.95158413    -0.79800
O426        O  0.62259469  0.91816811  0.93662269    -0.90100
C427        C  0.64428496  0.81410146  0.04487413     0.83800
O428        O  0.67243655  0.92713495  0.97939333    -0.68300
O429        O  0.63085344  0.85942507  0.19187712    -0.87600
C430        C  0.68769736  0.90507463  0.98671265     0.84600
C431        C  0.62768410  0.89260672  0.92213175     1.06200
H432        H  0.66406880  0.87132312  0.10319416     0.38000
O433        O  0.64406930  0.87135146  0.09486739    -1.10300
O434        O  0.58936115  0.89914106  0.11430663    -0.66900
Ni435      Ni  0.62904479  0.90862695  0.10606557     1.26300
O436        O  0.67877013  0.88420314  0.01273320    -0.67200
O437        O  0.63389625  0.90664241  0.17820102    -0.79400
C438        C  0.62979166  0.96695981  0.08722894     0.84000
O439        O  0.61688379  0.94784236  0.11199067    -0.66600
Ni440      Ni  0.62686117  0.84072208  0.12933750     1.27400
Ni441      Ni  0.64027486  0.87079561  0.02305107     1.26100
H442        H  0.60342318  0.90510446  0.02857099     0.38500
O443        O  0.64903644  0.96141015  0.56508619    -0.81400
O444        O  0.65795320  0.83339210  0.51730751    -0.66100
O445        O  0.62704726  0.90924108  0.53543533    -1.12700
C446        C  0.62951669  0.88226185  0.70739757     1.05500
O447        O  0.62135004  0.82366460  0.56351243    -0.79300
O448        O  0.58740990  0.85184462  0.62577479    -0.66900
Ni449      Ni  0.64137874  0.94168309  0.50328643     1.34900
C450        C  0.57478131  0.87518926  0.61709841     0.84200
O451        O  0.64153711  0.87654499  0.45074699    -0.79800
O452        O  0.63456370  0.92401820  0.44003937    -0.90100
C453        C  0.64403963  0.81520471  0.54275258     0.83800
O454        O  0.68025047  0.93037792  0.49618152    -0.68300
O455        O  0.63042568  0.85664048  0.69150664    -0.87600
C456        C  0.69399302  0.90700924  0.49957548     0.84600
C457        C  0.63791527  0.89873138  0.42306110     1.06200
H458        H  0.66358820  0.87166717  0.60624511     0.38000
O459        O  0.64399923  0.87143310  0.59541641    -1.10300
O460        O  0.58818426  0.89788817  0.60746233    -0.66900
Ni461      Ni  0.62794783  0.90806321  0.60707449     1.26300
O462        O  0.68285439  0.88468543  0.51831701    -0.67200
O463        O  0.62871200  0.90423907  0.67900654    -0.79400
C464        C  0.63020235  0.96644070  0.59860595     0.84000
O465        O  0.61473499  0.94650014  0.61494012    -0.66600
Ni466      Ni  0.62622694  0.84007982  0.62700626     1.27400
Ni467      Ni  0.64342112  0.87255135  0.52296609     1.26100
H468        H  0.60741080  0.90817278  0.52512170     0.38500
O469        O  0.84518287  0.96317670  0.33428171    -0.81400
O470        O  0.84036263  0.83486190  0.37038004    -0.66100
O471        O  0.86958509  0.91010722  0.35306305    -1.12700
C472        C  0.85761322  0.88772657  0.18046755     1.05500
O473        O  0.87397991  0.82451319  0.31720757    -0.79300
O474        O  0.90484273  0.85474892  0.25486828    -0.66900
Ni475      Ni  0.85689715  0.94141556  0.39169726     1.34900
C476        C  0.91745471  0.87804367  0.26219667     0.84200
O477        O  0.86031415  0.87504770  0.43587161    -0.79800
O478        O  0.86775003  0.92160774  0.45112775    -0.90100
C479        C  0.85266633  0.81665166  0.34219736     0.83800
O480        O  0.81858537  0.93033877  0.40406708    -0.68300
O481        O  0.85923678  0.86181452  0.19450487    -0.87600
C482        C  0.80461037  0.90773472  0.39733385     0.84600
C483        C  0.86544128  0.89578002  0.46557673     1.06200
H484        H  0.82953469  0.87432597  0.28580852     0.38000
O485        O  0.84966565  0.87391257  0.29317468    -1.10300
O486        O  0.90391448  0.90075073  0.27341826    -0.66900
Ni487      Ni  0.86409985  0.91084093  0.28211627     1.26300
O488        O  0.81534055  0.88563239  0.37631221    -0.67200
O489        O  0.85867557  0.90901412  0.21053313    -0.79400
C490        C  0.86130546  0.96880800  0.29726533     0.84000
O491        O  0.87587122  0.94939445  0.27574160    -0.66600
Ni492      Ni  0.86623388  0.84328169  0.25650765     1.27400
Ni493      Ni  0.85443257  0.87335785  0.36478093     1.26100
H494        H  0.88977546  0.90858492  0.35941494     0.38500
O495        O  0.84002847  0.96031574  0.82521014    -0.81400
O496        O  0.83274660  0.83424868  0.86945340    -0.66100
O497        O  0.86504412  0.90830321  0.85185912    -1.12700
C498        C  0.86416851  0.88331418  0.68084133     1.05500
O499        O  0.86755018  0.81935384  0.82165304    -0.79300
O500        O  0.90549028  0.85058814  0.77345946    -0.66900
Ni501      Ni  0.84970703  0.94043103  0.88579231     1.34900
C502        C  0.91724197  0.87473699  0.77321054     0.84200
O503        O  0.85033143  0.87565150  0.93576843    -0.79800
O504        O  0.85833091  0.92247064  0.94795414    -0.90100
C505        C  0.84409529  0.81458524  0.84320699     0.83800
O506        O  0.81110560  0.92902618  0.89435536    -0.68300
O507        O  0.86829364  0.85803666  0.69683932    -0.87600
C508        C  0.79773408  0.90633298  0.88535804     0.84600
C509        C  0.85500046  0.89714057  0.96428663     1.06200
H510        H  0.82872431  0.87033645  0.78045265     0.38000
O511        O  0.84825382  0.87056492  0.79157514    -1.10300
O512        O  0.90272468  0.89779043  0.77505756    -0.66900
Ni513      Ni  0.86252404  0.90770828  0.78051241     1.26300
O514        O  0.80955342  0.88453804  0.86565899    -0.67200
O515        O  0.85953257  0.90475395  0.70934753    -0.79400
C516        C  0.85811114  0.96614506  0.79121317     0.84000
O517        O  0.87400512  0.94658394  0.77311396    -0.66600
Ni518      Ni  0.86755207  0.83939496  0.76036239     1.27400
Ni519      Ni  0.84873654  0.87193279  0.86364298     1.26100
H520        H  0.88488383  0.90700643  0.86103599     0.38500
O521        O  0.67547137  0.12873016  0.18197434    -0.81400
O522        O  0.55214183  0.12788179  0.14384107    -0.66100
O523        O  0.62687028  0.15533143  0.16287197    -1.12700
C524        C  0.60467263  0.13846415  0.33451923     1.05500
O525        O  0.53709199  0.15824301  0.20164348    -0.79300
O526        O  0.57049217  0.18657385  0.26848881    -0.66900
Ni527      Ni  0.65735064  0.14084366  0.12304025     1.34900
C528        C  0.59445386  0.19890498  0.26810039     0.84200
O529        O  0.59228683  0.14673880  0.07985537    -0.79800
O530        O  0.63901362  0.15217589  0.06276078    -0.90100
C531        C  0.53222917  0.14226238  0.16421377     0.83800
O532        O  0.64570961  0.10265324  0.11288766    -0.68300
O533        O  0.57870826  0.13882297  0.32035333    -0.87600
C534        C  0.62336887  0.08911255  0.12355821     0.84600
C535        C  0.61299416  0.15116729  0.04941045     1.06200
H536        H  0.59120204  0.11415527  0.22817564     0.38000
O537        O  0.59049698  0.13441183  0.22202798    -1.10300
O538        O  0.61692264  0.18712203  0.25006816    -0.66900
Ni539      Ni  0.62782273  0.14817941  0.23399515     1.26300
O540        O  0.60138856  0.10110922  0.14227133    -0.67200
O541        O  0.62611184  0.14050718  0.30471041    -0.79400
C542        C  0.68465169  0.14828188  0.20948515     0.84000
O543        O  0.66712899  0.16040758  0.23944803    -0.66600
Ni544      Ni  0.55914064  0.14806817  0.25978220     1.27400
Ni545      Ni  0.59027493  0.14054322  0.15125989     1.26100
H546        H  0.62594009  0.17566729  0.15757555     0.38500
O547        O  0.67614428  0.13337510  0.69028314    -0.81400
O548        O  0.55253854  0.12541625  0.64669055    -0.66100
O549        O  0.62670233  0.15583686  0.66156900    -1.12700
C550        C  0.60098681  0.15263261  0.83440089     1.05500
O551        O  0.53709508  0.16148017  0.69290566    -0.79300
O552        O  0.56828788  0.19516609  0.75581096    -0.66900
Ni553      Ni  0.65832488  0.13875914  0.62809857     1.34900
C554        C  0.59234720  0.20726044  0.75503939     0.84200
O555        O  0.59366363  0.13897516  0.57982969    -0.79800
O556        O  0.64071759  0.14324665  0.56471710    -0.90100
C557        C  0.53236700  0.14147068  0.66194167     0.83800
O558        O  0.64775567  0.09990294  0.62975213    -0.68300
O559        O  0.57532221  0.15184674  0.81859173    -0.87600
C560        C  0.62562577  0.08665328  0.64258131     0.84600
C561        C  0.61504256  0.14111870  0.54999829     1.06200
H562        H  0.59025738  0.12025340  0.73544916     0.38000
O563        O  0.58949488  0.13966825  0.72363125    -1.10300
O564        O  0.61492678  0.19486407  0.73903295    -0.66900
Ni565      Ni  0.62627506  0.15516172  0.73389307     1.26300
O566        O  0.60257896  0.09957774  0.65447038    -0.67200
O567        O  0.62305822  0.15340628  0.80576878    -0.79400
C568        C  0.68360908  0.15557844  0.71280736     0.84000
O569        O  0.66496947  0.16904049  0.73849770    -0.66600
Ni570      Ni  0.55726383  0.15625470  0.75493917     1.27400
Ni571      Ni  0.59052825  0.13919178  0.65208015     1.26100
H572        H  0.62549876  0.17541954  0.65067491     0.38500
O573        O  0.67964354  0.37795152  0.43833080    -0.81400
O574        O  0.55432058  0.38652481  0.48507909    -0.66100
O575        O  0.62979918  0.35664645  0.46677230    -1.12700
C576        C  0.60527642  0.36756311  0.29420054     1.05500
O577        O  0.54068120  0.35289233  0.43302277    -0.79300
O578        O  0.57205280  0.32272515  0.36418492    -0.66900
Ni579      Ni  0.66136647  0.37214341  0.50050545     1.34900
C580        C  0.59506228  0.30878584  0.37018148     0.84200
O581        O  0.59617550  0.37167409  0.55052930    -0.79800
O582        O  0.64349266  0.36776387  0.56415957    -0.90100
C583        C  0.53469715  0.37126752  0.46667332     0.83800
O584        O  0.65055079  0.41099037  0.50018671    -0.68300
O585        O  0.57961649  0.36984463  0.31014749    -0.87600
C586        C  0.62804776  0.42510770  0.49196172     0.84600
C587        C  0.61784679  0.37046685  0.57957969     1.06200
H588        H  0.59433510  0.39520053  0.39725569     0.38000
O589        O  0.59301830  0.37540128  0.40661240    -1.10300
O590        O  0.61747878  0.31986048  0.38803989    -0.66900
Ni591      Ni  0.62968808  0.35891160  0.39442823     1.26300
O592        O  0.60470095  0.41305057  0.48085552    -0.67200
O593        O  0.62684723  0.36250252  0.32238979    -0.79400
C594        C  0.68705973  0.35606811  0.41415771     0.84000
O595        O  0.66831687  0.34362977  0.38820566    -0.66600
Ni596      Ni  0.56105404  0.36168852  0.37235047     1.27400
Ni597      Ni  0.59322445  0.37335133  0.47828976     1.26100
H598        H  0.62879103  0.33684371  0.47627576     0.38500
O599        O  0.67817012  0.38364790  0.93724541    -0.81400
O600        O  0.55375258  0.38602090  0.98890208    -0.66100
O601        O  0.62983210  0.36004016  0.96532547    -1.12700
C602        C  0.60235791  0.37429917  0.79442780     1.05500
O603        O  0.54063263  0.35410693  0.93348241    -0.79300
O604        O  0.57185540  0.32822061  0.85939223    -0.66900
Ni605      Ni  0.66088431  0.37648654  0.99967481     1.34900
C606        C  0.59519728  0.31460591  0.86363495     0.84200
O607        O  0.59624951  0.36968627  0.05090837    -0.79800
O608        O  0.64378697  0.36986772  0.06363190    -0.90100
C609        C  0.53452908  0.37076279  0.96961521     0.83800
O610        O  0.64875551  0.41524230  0.00107694    -0.68300
O611        O  0.57717515  0.37766499  0.81206627    -0.87600
C612        C  0.62495604  0.42773592  0.99528150     0.84600
C613        C  0.61812435  0.36838237  0.07932355     1.06200
H614        H  0.59250369  0.39955397  0.90113460     0.38000
O615        O  0.59174039  0.37941312  0.90819637    -1.10300
O616        O  0.61727806  0.32520823  0.88357350    -0.66900
Ni617      Ni  0.62859562  0.36434801  0.89315143     1.26300
O618        O  0.60227909  0.41423509  0.98605985    -0.67200
O619        O  0.62452186  0.36945604  0.82140346    -0.79400
C620        C  0.68581008  0.36212957  0.91220624     0.84000
O621        O  0.66741985  0.35025784  0.88469285    -0.66600
Ni622      Ni  0.55974537  0.36631113  0.87352246     1.27400
Ni623      Ni  0.59273648  0.37446054  0.97938393     1.26100
H624        H  0.63000300  0.33995813  0.97311127     0.38500
O625        O  0.31473371  0.63172554  0.44711562    -0.81400
O626        O  0.43913647  0.62532193  0.48906380    -0.66100
O627        O  0.36445721  0.65554711  0.46985327    -1.12700
C628        C  0.38828007  0.64006504  0.29792724     1.05500
O629        O  0.45430261  0.65692527  0.43397730    -0.79300
O630        O  0.42229220  0.68696103  0.36652453    -0.66900
Ni631      Ni  0.33312096  0.64139735  0.50714973     1.34900
C632        C  0.39854743  0.70011369  0.36829827     0.84200
O633        O  0.39799243  0.64324783  0.55388774    -0.79800
O634        O  0.35101373  0.65012349  0.56872707    -0.90100
C635        C  0.45919173  0.63944484  0.46931728     0.83800
O636        O  0.34407851  0.60248177  0.51341797    -0.68300
O637        O  0.41417640  0.63978607  0.31271171    -0.87600
C638        C  0.36611170  0.58816279  0.50172466     0.84600
C639        C  0.37670350  0.64796866  0.58328486     1.06200
H640        H  0.40057112  0.61465784  0.40292693     0.38000
O641        O  0.40139514  0.63473496  0.41059980    -1.10300
O642        O  0.37572916  0.68877383  0.38474431    -0.66900
Ni643      Ni  0.36439341  0.64987165  0.39829272     1.26300
O644        O  0.38898308  0.59987340  0.48702198    -0.67200
O645        O  0.36685181  0.64294812  0.32755999    -0.79400
C646        C  0.30691097  0.65190097  0.41936265     0.84000
O647        O  0.32545502  0.66371565  0.39168965    -0.66600
Ni648      Ni  0.43317067  0.64799884  0.37436683     1.27400
Ni649      Ni  0.40086989  0.63910892  0.48186173     1.26100
H650        H  0.36557828  0.67571776  0.47661097     0.38500
O651        O  0.31198764  0.63678588  0.94208479    -0.81400
O652        O  0.43852951  0.62716215  0.98752103    -0.66100
O653        O  0.36315803  0.65635294  0.96972264    -1.12700
C654        C  0.38906422  0.64445810  0.79743489     1.05500
O655        O  0.45275523  0.66019257  0.93477891    -0.79300
O656        O  0.42184662  0.68900624  0.86383088    -0.66900
Ni657      Ni  0.33163112  0.63989413  0.00336129     1.34900
C658        C  0.39912723  0.70336467  0.87101880     0.84200
O659        O  0.39730329  0.64348328  0.05226380    -0.79800
O660        O  0.35012571  0.64173693  0.06666582    -0.90100
C661        C  0.45819742  0.64252085  0.96957997     0.83800
O662        O  0.34201263  0.60104458  0.99655941    -0.68300
O663        O  0.41448139  0.64081746  0.81319780    -0.87600
C664        C  0.36541173  0.58767284  0.99135265     0.84600
C665        C  0.37581871  0.64251260  0.08183304     1.06200
H666        H  0.39877734  0.61719991  0.90069310     0.38000
O667        O  0.40033760  0.63708217  0.90944577    -1.10300
O668        O  0.37704242  0.69290219  0.89167512    -0.66900
Ni669      Ni  0.36402818  0.65409234  0.89760111     1.26300
O670        O  0.38890916  0.60052957  0.98521820    -0.67200
O671        O  0.36753865  0.65055169  0.82570896    -0.79400
C672        C  0.30623785  0.65904639  0.91777849     0.84000
O673        O  0.32586463  0.67028419  0.89164653    -0.66600
Ni674      Ni  0.43269524  0.65017384  0.87466239     1.27400
Ni675      Ni  0.39991517  0.64021751  0.98070595     1.26100
H676        H  0.36370843  0.67615260  0.97951961     0.38500
O677        O  0.31053450  0.87707046  0.19356113    -0.81400
O678        O  0.43562365  0.88434566  0.14418911    -0.66100
O679        O  0.36072748  0.85651319  0.16303009    -1.12700
C680        C  0.38528115  0.86858526  0.33519736     1.05500
O681        O  0.45047984  0.85242242  0.19880215    -0.79300
O682        O  0.41946995  0.82481789  0.27139920    -0.66900
Ni683      Ni  0.32942304  0.87476160  0.13120613     1.34900
C684        C  0.39757312  0.80975616  0.26412235     0.84200
O685        O  0.39484616  0.86759275  0.08039230    -0.79800
O686        O  0.34766769  0.87280075  0.06727309    -0.90100
C687        C  0.45553365  0.86954723  0.16308552     0.83800
O688        O  0.33982267  0.91353685  0.13857305    -0.68300
O689        O  0.41036121  0.87379518  0.31883463    -0.87600
C690        C  0.36369740  0.92573766  0.14073725     0.84600
C691        C  0.37326415  0.86975749  0.05162291     1.06200
H692        H  0.39470586  0.89558268  0.23093271     0.38000
O693        O  0.39714545  0.87565126  0.22282023    -1.10300
O694        O  0.37602893  0.81940946  0.24036838    -0.66900
Ni695      Ni  0.36141497  0.85819944  0.23513266     1.26300
O696        O  0.38679374  0.91165293  0.14538581    -0.67200
O697        O  0.36446066  0.86137401  0.30707056    -0.79400
C698        C  0.30455304  0.85382299  0.21439257     0.84000
O699        O  0.32367049  0.84176980  0.24069080    -0.66600
Ni700      Ni  0.42952034  0.86339706  0.25819091     1.27400
Ni701      Ni  0.39731376  0.87177929  0.15164888     1.26100
H702        H  0.36110983  0.83678432  0.15262508     0.38500
O703        O  0.31172055  0.88059303  0.69126915    -0.81400
O704        O  0.43471360  0.88893184  0.64545775    -0.66100
O705        O  0.36107522  0.85783498  0.66429249    -1.12700
C706        C  0.38370251  0.87178520  0.83626764     1.05500
O707        O  0.45032756  0.85690780  0.69961047    -0.79300
O708        O  0.41941414  0.82709867  0.76985833    -0.66900
Ni709      Ni  0.32936891  0.87268589  0.62938039     1.34900
C710        C  0.39655545  0.81296318  0.76705351     0.84200
O711        O  0.39418645  0.87142847  0.58055442    -0.79800
O712        O  0.34729209  0.86559439  0.56664150    -0.90100
C713        C  0.45500891  0.87465478  0.66462601     0.83800
O714        O  0.33894072  0.91173335  0.62499107    -0.68300
O715        O  0.40938634  0.87458425  0.82078481    -0.87600
C716        C  0.36081529  0.92610067  0.63445805     0.84600
C717        C  0.37295425  0.86793749  0.55124531     1.06200
H718        H  0.39456384  0.89847372  0.73217327     0.38000
O719        O  0.39666038  0.87852169  0.72392964    -1.10300
O720        O  0.37417383  0.82315514  0.74659337    -0.66900
Ni721      Ni  0.36058275  0.86188713  0.73619046     1.26300
O722        O  0.38401407  0.91425133  0.64806462    -0.67200
O723        O  0.36255616  0.86725999  0.80735547    -0.79400
C724        C  0.30401254  0.85896772  0.71518413     0.84000
O725        O  0.32241154  0.84657354  0.74237711    -0.66600
Ni726      Ni  0.42888238  0.86606222  0.75943793     1.27400
Ni727      Ni  0.39680173  0.87488940  0.65255908     1.26100
H728        H  0.36279492  0.83784692  0.65603985     0.38500
O729        O  0.34055846  0.05093561  0.05419787    -0.81400
O730        O  0.33366010  0.18115894  0.01541457    -0.66100
O731        O  0.36263858  0.10447678  0.03073740    -1.12700
C732        C  0.35569555  0.12869214  0.20387711     1.05500
O733        O  0.36876235  0.19005266  0.06471718    -0.79300
O734        O  0.39980055  0.16006129  0.12667216    -0.66900
Ni735      Ni  0.34869295  0.07305862  0.99489702     1.34900
C736        C  0.41277166  0.13701630  0.11646343     0.84200
O737        O  0.35233294  0.13992999  0.94880389    -0.79800
O738        O  0.35629676  0.09271363  0.93353398    -0.90100
C739        C  0.34731118  0.19902779  0.04154499     0.83800
O740        O  0.30967009  0.08447277  0.98962917    -0.68300
O741        O  0.35501609  0.15446779  0.18899057    -0.87600
C742        C  0.29634845  0.10804029  0.99400162     0.84600
C743        C  0.35561863  0.11868826  0.91913444     1.06200
H744        H  0.32429733  0.14117563  0.10115980     0.38000
O745        O  0.34423140  0.14144871  0.09190421    -1.10300
O746        O  0.39958850  0.11455761  0.10471434    -0.66900
Ni747      Ni  0.35979422  0.10443454  0.10219421     1.26300
O748        O  0.30801011  0.13058882  0.01075702    -0.67200
O749        O  0.35722287  0.10715894  0.17430413    -0.79400
C750        C  0.35781048  0.04582325  0.08976703     0.84000
O751        O  0.37259986  0.06564316  0.10839474    -0.66600
Ni752      Ni  0.36124836  0.17218985  0.12628676     1.27400
Ni753      Ni  0.34742151  0.14182988  0.02003890     1.26100
H754        H  0.38255977  0.10532225  0.02163495     0.38500
O755        O  0.34086322  0.05346686  0.55420051    -0.81400
O756        O  0.33088508  0.18116947  0.51538197    -0.66100
O757        O  0.36385431  0.10633470  0.53218915    -1.12700
C758        C  0.35701692  0.13037780  0.70411736     1.05500
O759        O  0.36571900  0.19296543  0.56363342    -0.79300
O760        O  0.40028599  0.16282840  0.61973967    -0.66900
Ni761      Ni  0.35190778  0.07445856  0.49557507     1.34900
C762        C  0.41297026  0.13915287  0.61462694     0.84200
O763        O  0.35096211  0.13999808  0.44887576    -0.79800
O764        O  0.36207684  0.09368870  0.43530649    -0.90100
C765        C  0.34324008  0.20005772  0.54133881     0.83800
O766        O  0.31333000  0.08527148  0.48392469    -0.68300
O767        O  0.35868380  0.15603592  0.68889541    -0.87600
C768        C  0.29835698  0.10740644  0.49235153     0.84600
C769        C  0.35751733  0.11908454  0.41982805     1.06200
H770        H  0.32450805  0.14300996  0.60244182     0.38000
O771        O  0.34436479  0.14310759  0.59261744    -1.10300
O772        O  0.39959547  0.11597790  0.60893585    -0.66900
Ni773      Ni  0.35978940  0.10604404  0.60345731     1.26300
O774        O  0.30815786  0.12942131  0.51407011    -0.67200
O775        O  0.35591611  0.10871493  0.67501115    -0.79400
C776        C  0.35775171  0.04747017  0.58976023     0.84000
O777        O  0.37216994  0.06703537  0.61015302    -0.66600
Ni778      Ni  0.36163117  0.17422095  0.62554417     1.27400
Ni779      Ni  0.34691156  0.14275770  0.52062575     1.26100
H780        H  0.38383555  0.10820357  0.52416576     0.38500
O781        O  0.15055689  0.05316194  0.31946352    -0.81400
O782        O  0.15766653  0.17902834  0.35890781    -0.66100
O783        O  0.12568782  0.10498120  0.34055951    -1.12700
C784        C  0.13300448  0.12902366  0.16899030     1.05500
O785        O  0.12288429  0.19123312  0.31035848    -0.79300
O786        O  0.08904883  0.16154500  0.25259445    -0.66900
Ni787      Ni  0.13773338  0.07333315  0.37803530     1.34900
C788        C  0.07728962  0.13749582  0.25402894     0.84200
O789        O  0.13782884  0.13827489  0.42462229    -0.79800
O790        O  0.12583156  0.09246879  0.43799561    -0.90100
C791        C  0.14516280  0.19803708  0.33310949     0.83800
O792        O  0.17566187  0.08428354  0.39322127    -0.68300
O793        O  0.13102813  0.15464838  0.18466025    -0.87600
C794        C  0.19045013  0.10631188  0.38548348     0.84600
C795        C  0.13092180  0.11767631  0.45365129     1.06200
H796        H  0.16513568  0.14137476  0.27147582     0.38000
O797        O  0.14521485  0.14145812  0.28083818    -1.10300
O798        O  0.09094021  0.11435805  0.26128324    -0.66900
Ni799      Ni  0.13080605  0.10444762  0.26919738     1.26300
O800        O  0.18098321  0.12715933  0.35974566    -0.67200
O801        O  0.13532401  0.10716796  0.19753012    -0.79400
C802        C  0.13348866  0.04607543  0.28501174     0.84000
O803        O  0.11947997  0.06537012  0.26222243    -0.66600
Ni804      Ni  0.12758445  0.17272185  0.24820085     1.27400
Ni805      Ni  0.14214486  0.14102063  0.35283861     1.26100
H806        H  0.10557023  0.10711413  0.34766253     0.38500
O807        O  0.14584650  0.05436284  0.82057254    -0.81400
O808        O  0.15381719  0.18204144  0.85845906    -0.66100
O809        O  0.12239407  0.10769620  0.84254537    -1.12700
C810        C  0.13063463  0.12980887  0.66942565     1.05500
O811        O  0.11961678  0.19360751  0.80789065    -0.79300
O812        O  0.08634274  0.16412125  0.74952974    -0.66900
Ni813      Ni  0.13464160  0.07589090  0.87933896     1.34900
C814        C  0.07326912  0.14124449  0.75778418     0.84200
O815        O  0.13366784  0.14205618  0.92503546    -0.79800
O816        O  0.12402195  0.09564812  0.93940629    -0.90100
C817        C  0.14146678  0.20068920  0.83162286     0.83800
O818        O  0.17306168  0.08634162  0.89263096    -0.68300
O819        O  0.12994321  0.15575665  0.68363848    -0.87600
C820        C  0.18743752  0.10892884  0.88750106     0.84600
C821        C  0.12781734  0.12125660  0.95427433     1.06200
H822        H  0.16204782  0.14255143  0.77244102     0.38000
O823        O  0.14208980  0.14344419  0.78152095    -1.10300
O824        O  0.08650318  0.11802401  0.76661596    -0.66900
Ni825      Ni  0.12632487  0.10693019  0.77135853     1.26300
O826        O  0.17771359  0.13041350  0.86340758    -0.67200
O827        O  0.13007741  0.10861111  0.69949796    -0.79400
C828        C  0.12908338  0.04905449  0.78452123     0.84000
O829        O  0.11373475  0.06861146  0.76565482    -0.66600
Ni830      Ni  0.12528221  0.17446877  0.74655842     1.27400
Ni831      Ni  0.13870793  0.14389050  0.85359715     1.26100
H832        H  0.10239813  0.10981048  0.85065903     0.38500
C833        C  0.11506843  0.10257672  0.53846310    -0.20800
C834        C  0.13003653  0.12224703  0.50876794    -0.07400
C835        C  0.14621505  0.14352158  0.53287353     0.13500
C836        C  0.14660465  0.14458084  0.58524463    -0.20900
C837        C  0.13164791  0.12495891  0.61469292    -0.07400
C838        C  0.11569073  0.10358331  0.59091356     0.13500
C839        C  0.09852204  0.08233755  0.62028734    -0.24200
H840        H  0.10276505  0.08612105  0.52052912     0.14800
H841        H  0.15880590  0.16100209  0.60354135     0.14800
C842        C  0.16388008  0.16478851  0.50439958    -0.24200
H843        H  0.08643394  0.06793877  0.59544595     0.05000
H844        H  0.08295294  0.09367173  0.64489515     0.08200
H845        H  0.11289306  0.06886634  0.64329381     0.08200
H846        H  0.14991038  0.17846809  0.48103078     0.08200
H847        H  0.17981230  0.15343891  0.48057893     0.08200
H848        H  0.17573127  0.17909045  0.52976605     0.05000
C849        C  0.14743613  0.14480268  0.08516643    -0.20800
C850        C  0.13177923  0.12558512  0.11431279    -0.07400
C851        C  0.11235554  0.10722524  0.09060990     0.13500
C852        C  0.11072117  0.10731128  0.03836525    -0.20900
C853        C  0.12705028  0.12592240  0.00901054    -0.07400
C854        C  0.14521471  0.14546468  0.03299587     0.13500
C855        C  0.16301858  0.16654491  0.00436389    -0.24200
H856        H  0.16151440  0.15958881  0.10358567     0.14800
H857        H  0.09636832  0.09263131  0.02033118     0.14800
C858        C  0.09198137  0.08822069  0.11841019    -0.24200
H859        H  0.14896843  0.18132655  0.98324574     0.05000
H860        H  0.17768075  0.15512615  0.97825416     0.08200
H861        H  0.17622958  0.17968884  0.02956285     0.08200
H862        H  0.06980733  0.09361426  0.10738683     0.08200
H863        H  0.09291935  0.09032047  0.15949398     0.08200
H864        H  0.09644855  0.06568861  0.10822670     0.05000
C865        C  0.22758423  0.08353398  0.43910321    -0.20800
C866        C  0.21886394  0.10757763  0.41120159    -0.07400
C867        C  0.23555102  0.13258125  0.41477101     0.13500
C868        C  0.26029228  0.13238961  0.44448289    -0.20900
C869        C  0.26914972  0.10805623  0.47089671    -0.07400
C870        C  0.25207162  0.08350341  0.46895070     0.13500
C871        C  0.25888660  0.05739462  0.49968220    -0.24200
H872        H  0.21495130  0.06439605  0.43828974     0.14800
H873        H  0.27331468  0.15124496  0.44599637     0.14800
C874        C  0.22769184  0.15972430  0.38802856    -0.24200
H875        H  0.24174301  0.04135436  0.49747814     0.05000
H876        H  0.26123105  0.06348838  0.53956897     0.08200
H877        H  0.27875918  0.04692429  0.48609669     0.08200
H878        H  0.20687221  0.16785346  0.40211873     0.08200
H879        H  0.22670290  0.15583308  0.34712830     0.08200
H880        H  0.24354523  0.17670219  0.39434864     0.05000
C881        C  0.34427781  0.14813300  0.78833453    -0.20800
C882        C  0.35672254  0.12644284  0.75889980    -0.07400
C883        C  0.37092513  0.10353858  0.78254693     0.13500
C884        C  0.37107118  0.10233802  0.83489844    -0.20900
C885        C  0.35785014  0.12360967  0.86447864    -0.07400
C886        C  0.34484626  0.14726031  0.84061947     0.13500
C887        C  0.33093275  0.17144467  0.86928772    -0.24200
H888        H  0.33390950  0.16603094  0.77016319     0.14800
H889        H  0.38158321  0.08447417  0.85288965     0.14800
C890        C  0.38681439  0.08084346  0.75322912    -0.24200
H891        H  0.32136961  0.18764408  0.84407471     0.05000
H892        H  0.34700968  0.18240583  0.89241512     0.08200
H893        H  0.31363721  0.16321029  0.89345477     0.08200
H894        H  0.40306566  0.09081538  0.72870068     0.08200
H895        H  0.37175192  0.06849596  0.73018095     0.08200
H896        H  0.39800877  0.06555613  0.77813062     0.05000
C897        C  0.34304696  0.14643354  0.28829395    -0.20800
C898        C  0.35544833  0.12467835  0.25884920    -0.07400
C899        C  0.36999367  0.10204574  0.28272535     0.13500
C900        C  0.37141525  0.10177172  0.33508912    -0.20900
C901        C  0.35859686  0.12334119  0.36471076    -0.07400
C902        C  0.34444868  0.14623829  0.34055084     0.13500
C903        C  0.33016814  0.17038939  0.36878779    -0.24200
H904        H  0.33206274  0.16396289  0.27014217     0.14800
H905        H  0.38249056  0.08423438  0.35301390     0.14800
C906        C  0.38466824  0.07844541  0.25369784    -0.24200
H907        H  0.32002893  0.18610792  0.34333588     0.05000
H908        H  0.34612541  0.18197637  0.39121925     0.08200
H909        H  0.31318379  0.16199686  0.39348262     0.08200
H910        H  0.40082229  0.08749185  0.22788440     0.08200
H911        H  0.36876910  0.06628680  0.23209574     0.08200
H912        H  0.39578737  0.06314597  0.27868069     0.05000
C913        C  0.22299107  0.08687139  0.94599690    -0.20800
C914        C  0.21576134  0.10993838  0.91435622    -0.07400
C915        C  0.23418563  0.13377354  0.91431317     0.13500
C916        C  0.25913042  0.13326049  0.94374468    -0.20900
C917        C  0.26678528  0.10960808  0.97318194    -0.07400
C918        C  0.24793822  0.08633892  0.97497924     0.13500
C919        C  0.25351338  0.06102301  0.00837022    -0.24200
H920        H  0.20894813  0.06879692  0.94847016     0.14800
H921        H  0.27336459  0.15120543  0.94234201     0.14800
C922        C  0.22819932  0.15983785  0.88323289    -0.24200
H923        H  0.23526225  0.04619205  0.00891868     0.05000
H924        H  0.25704968  0.06834008  0.04731911     0.08200
H925        H  0.27237207  0.04873234  0.99495738     0.08200
H926        H  0.20810577  0.17025051  0.89605698     0.08200
H927        H  0.22660569  0.15380574  0.84320356     0.08200
H928        H  0.24537787  0.17578545  0.88645864     0.05000
C929        C  0.38436253  0.97390962  0.63122003    -0.20800
C930        C  0.35921235  0.95786911  0.62788511    -0.07400
C931        C  0.33331254  0.97258105  0.61646483     0.13500
C932        C  0.33379284  0.00186521  0.60635637    -0.20900
C933        C  0.35900501  0.01749151  0.60774945    -0.07400
C934        C  0.38456213  0.00344769  0.62156970     0.13500
C935        C  0.41229799  0.01916548  0.62418116    -0.24200
H936        H  0.40422585  0.96321598  0.64029298     0.14800
H937        H  0.31413348  0.01272533  0.59641017     0.14800
C938        C  0.30474923  0.95813235  0.61434118    -0.24200
H939        H  0.43033994  0.00475931  0.63390682     0.05000
H940        H  0.41084689  0.03598375  0.65333634     0.08200
H941        H  0.41712862  0.02901326  0.58742115     0.08200
H942        H  0.30019151  0.94748372  0.65051098     0.08200
H943        H  0.30450058  0.94248901  0.58319862     0.08200
H944        H  0.28703815  0.97349215  0.60752418     0.05000
C945        C  0.33742635  0.97207617  0.13483861    -0.20800
C946        C  0.36392087  0.95761804  0.13533317    -0.07400
C947        C  0.38896078  0.97378912  0.12671789     0.13500
C948        C  0.38643173  0.00296673  0.11449893    -0.20900
C949        C  0.35970470  0.01643412  0.11014017    -0.07400
C950        C  0.33500268  0.00098570  0.12226592     0.13500
C951        C  0.30591147  0.01498132  0.12268779    -0.24200
H952        H  0.31810656  0.96051839  0.14293001     0.14800
H953        H  0.40539711  0.01505150  0.10606000     0.14800
C954        C  0.41839806  0.96069166  0.12895539    -0.24200
H955        H  0.28919969  0.00029202  0.13628871     0.05000
H956        H  0.29994242  0.02172379  0.08441958     0.08200
H957        H  0.30595676  0.03380476  0.14787032     0.08200
H958        H  0.42083163  0.94386694  0.10005586     0.08200
H959        H  0.42211083  0.95153796  0.16662621     0.08200
H960        H  0.43522967  0.97665033  0.12195966     0.05000
C961        C  0.35566277  0.85739101  0.96771100    -0.20800
C962        C  0.37729018  0.86930618  0.99684009    -0.07400
C963        C  0.40033019  0.88286565  0.97295513     0.13500
C964        C  0.40078390  0.88458871  0.92071780    -0.20900
C965        C  0.37926644  0.87251035  0.89126930    -0.07400
C966        C  0.35639003  0.85849292  0.91538715     0.13500
C967        C  0.33306417  0.84381995  0.88696504    -0.24200
H968        H  0.33803093  0.84691511  0.98618310     0.14800
H969        H  0.41845483  0.89522759  0.90272996     0.14800
C970        C  0.42416223  0.89622365  0.00196865    -0.24200
H971        H  0.31760932  0.83332478  0.91237574     0.05000
H972        H  0.34239405  0.82707426  0.86225229     0.08200
H973        H  0.32094343  0.85958440  0.86445206     0.08200
H974        H  0.43590846  0.87963717  0.02327502     0.08200
H975        H  0.41533153  0.91252491  0.02802844     0.08200
H976        H  0.43978021  0.90683754  0.97703590     0.05000
C977        C  0.40532825  0.86305680  0.42001515    -0.20800
C978        C  0.38140635  0.86935587  0.39026774    -0.07400
C979        C  0.35502477  0.87531527  0.41386290     0.13500
C980        C  0.35333759  0.87458937  0.46615611    -0.20900
C981        C  0.37717066  0.86793733  0.49605032    -0.07400
C982        C  0.40365789  0.86226727  0.47235754     0.13500
C983        C  0.43016276  0.85471847  0.50127116    -0.24200
H984        H  0.42558726  0.85815970  0.40211497     0.14800
H985        H  0.33302840  0.87956760  0.48378454     0.14800
C986        C  0.32868602  0.88316144  0.38472167    -0.24200
H987        H  0.44842991  0.84949709  0.47613071     0.05000
H988        H  0.42620460  0.83581561  0.52508081     0.08200
H989        H  0.43659260  0.87299023  0.52483103     0.08200
H990        H  0.32183664  0.86483006  0.36171455     0.08200
H991        H  0.33308801  0.90170841  0.36029512     0.08200
H992        H  0.31054743  0.88903354  0.40972010     0.05000
C993        C  0.37335243  0.74067956  0.82233012    -0.20800
C994        C  0.39766634  0.73267939  0.84957528    -0.07400
C995        C  0.42116314  0.75118588  0.84973420     0.13500
C996        C  0.42020950  0.77631264  0.82118687    -0.20900
C997        C  0.39621033  0.78424164  0.79247826    -0.07400
C998        C  0.37209314  0.76616872  0.79439848     0.13500
C999        C  0.34479353  0.77326270  0.76761460    -0.24200
H1000       H  0.35534788  0.72644089  0.82186066     0.14800
H1001       H  0.43851854  0.79010548  0.82217401     0.14800
C1002       C  0.44702668  0.74513215  0.88133594    -0.24200
H1003       H  0.32870193  0.75630104  0.77222002     0.05000
H1004       H  0.34901021  0.77569303  0.72696188     0.08200
H1005       H  0.33531282  0.79316928  0.78315086     0.08200
H1006       H  0.45860971  0.72598529  0.86736627     0.08200
H1007       H  0.44038636  0.74178931  0.92081287     0.08200
H1008       H  0.46222852  0.76306845  0.88057301     0.05000
C1009       C  0.39763053  0.62697413  0.65925843    -0.20800
C1010       C  0.38124570  0.64883742  0.63781022    -0.07400
C1011       C  0.36663580  0.66851726  0.66926671     0.13500
C1012       C  0.36890781  0.66580321  0.72126218    -0.20900
C1013       C  0.38515544  0.64386172  0.74273947    -0.07400
C1014       C  0.39963014  0.62405840  0.71131983     0.13500
C1015       C  0.41621675  0.59913764  0.73219080    -0.24200
H1016       H  0.40811521  0.61146524  0.63509204     0.14800
H1017       H  0.35838975  0.68132151  0.74537514     0.14800
C1018       C  0.34922144  0.69289152  0.64848057    -0.24200
H1019       H  0.42395768  0.58456749  0.70214443     0.05000
H1020       H  0.40239584  0.58672415  0.75777359     0.08200
H1021       H  0.43517754  0.60663149  0.75263136     0.08200
H1022       H  0.33029478  0.68476438  0.62869616     0.08200
H1023       H  0.36246171  0.70553294  0.62231855     0.08200
H1024       H  0.34134320  0.70741262  0.67850674     0.05000
C1025       C  0.40680013  0.63024503  0.21195232    -0.20800
C1026       C  0.38362604  0.63841150  0.24286083    -0.07400
C1027       C  0.35790532  0.64737867  0.21994569     0.13500
C1028       C  0.35672856  0.64924465  0.16774089    -0.20900
C1029       C  0.38005350  0.64172256  0.13692913    -0.07400
C1030       C  0.40534780  0.63149782  0.15956730     0.13500
C1031       C  0.43070044  0.62111235  0.12933174    -0.24200
H1032       H  0.42644451  0.62288084  0.22885536     0.14800
H1033       H  0.33712468  0.65670687  0.15080885     0.14800
C1034       C  0.33144664  0.65532582  0.24943290    -0.24200
H1035       H  0.44794359  0.61260667  0.15349128     0.05000
H1036       H  0.43976597  0.63889991  0.10734373     0.08200
H1037       H  0.42420072  0.60369247  0.10385154     0.08200
H1038       H  0.33569619  0.67375386  0.27417926     0.08200
H1039       H  0.32439206  0.63681622  0.27188845     0.08200
H1040       H  0.31344588  0.66149315  0.22485121     0.05000
C1041       C  0.41844236  0.77465547  0.32429826    -0.20800
C1042       C  0.39721444  0.78074619  0.28847213    -0.07400
C1043       C  0.37560373  0.76021398  0.28133761     0.13500
C1044       C  0.37585923  0.73492173  0.31000536    -0.20900
C1045       C  0.39721597  0.72908101  0.34536312    -0.07400
C1046       C  0.41886936  0.74930552  0.35222071     0.13500
C1047       C  0.44225174  0.74467569  0.38985256    -0.24200
H1048       H  0.43496734  0.79003088  0.33124954     0.14800
H1049       H  0.35968942  0.71907896  0.30357784     0.14800
C1050       C  0.35249600  0.76422763  0.24310889    -0.24200
H1051       H  0.45610305  0.76358308  0.39316321     0.05000
H1052       H  0.45607570  0.72646565  0.37842430     0.08200
H1053       H  0.43280984  0.74045872  0.42725720     0.08200
H1054       H  0.36215753  0.76767321  0.20561583     0.08200
H1055       H  0.33871019  0.78267271  0.25349765     0.08200
H1056       H  0.33861042  0.74529825  0.24059419     0.05000
C1057       C  0.62775272  0.38934564  0.71708906    -0.20800
C1058       C  0.60526737  0.37458299  0.73925204    -0.07400
C1059       C  0.58615944  0.35935389  0.70835222     0.13500
C1060       C  0.59057599  0.35872883  0.65643768    -0.20900
C1061       C  0.61350161  0.37280455  0.63437292    -0.07400
C1062       C  0.63190003  0.38906182  0.66500485     0.13500
C1063       C  0.65531628  0.40706726  0.64315320    -0.24200
H1064       H  0.64199531  0.40134108  0.74065255     0.14800
H1065       H  0.57638109  0.34662557  0.63295703     0.14800
C1066       C  0.56167404  0.34260996  0.72966373    -0.24200
H1067       H  0.66571737  0.42022097  0.67218691     0.05000
H1068       H  0.64636888  0.42175620  0.61464117     0.08200
H1069       H  0.67210532  0.39336876  0.62592661     0.08200
H1070       H  0.54594708  0.35714893  0.74786627     0.08200
H1071       H  0.56975092  0.32684110  0.75710444     0.08200
H1072       H  0.55019350  0.33073359  0.70021317     0.05000
C1073       C  0.59707277  0.38776197  0.15724164    -0.20800
C1074       C  0.61393072  0.36672815  0.13398840    -0.07400
C1075       C  0.62866824  0.34656818  0.16366743     0.13500
C1076       C  0.62633671  0.34813368  0.21599075    -0.20900
C1077       C  0.60947963  0.36919815  0.23937692    -0.07400
C1078       C  0.59465073  0.38932725  0.20952444     0.13500
C1079       C  0.57699745  0.41310590  0.23236389    -0.24200
H1080       H  0.58629046  0.40349825  0.13431550     0.14800
H1081       H  0.63707331  0.33229706  0.23876299     0.14800
C1082       C  0.64599841  0.32274696  0.14032045    -0.24200
H1083       H  0.56898639  0.42812279  0.20352601     0.05000
H1084       H  0.59011239  0.42536265  0.25904269     0.08200
H1085       H  0.55814207  0.40441855  0.25202623     0.08200
H1086       H  0.66435201  0.33145123  0.11923277     0.08200
H1087       H  0.63242651  0.31031847  0.11461296     0.08200
H1088       H  0.65458252  0.30793011  0.16897572     0.05000
C1089       C  0.49018821  0.16305666  0.62273699    -0.20800
C1090       C  0.50336060  0.13860800  0.64181827    -0.07400
C1091       C  0.48765812  0.11327602  0.64622717     0.13500
C1092       C  0.45851787  0.11357348  0.63413414    -0.20900
C1093       C  0.44466494  0.13871580  0.61828486    -0.07400
C1094       C  0.46121652  0.16355737  0.61062220     0.13500
C1095       C  0.44888788  0.19095941  0.59015422    -0.24200
H1096       H  0.50256961  0.18228554  0.61884063     0.14800
H1097       H  0.44622383  0.09443911  0.63973430     0.14800
C1098       C  0.50111282  0.08646921  0.66655261    -0.24200
H1099       H  0.46570399  0.20676035  0.58194816     0.05000
H1100       H  0.43419702  0.20099271  0.61785539     0.08200
H1101       H  0.43752917  0.18670160  0.55469691     0.08200
H1102       H  0.50932784  0.09045855  0.70473068     0.08200
H1103       H  0.51896626  0.07949870  0.64181679     0.08200
H1104       H  0.48561533  0.06882019  0.66882249     0.05000
C1105       C  0.57525883  0.24043353  0.82113707    -0.20800
C1106       C  0.59406622  0.23566018  0.78049365    -0.07400
C1107       C  0.61510648  0.25634984  0.77045617     0.13500
C1108       C  0.61606403  0.28125140  0.80024098    -0.20900
C1109       C  0.59678041  0.28593934  0.84011192    -0.07400
C1110       C  0.57634899  0.26505979  0.85079573     0.13500
C1111       C  0.55597851  0.26838954  0.89430827    -0.24200
H1112       H  0.55975555  0.22439132  0.83072329     0.14800
H1113       H  0.63132853  0.29765011  0.79127630     0.14800
C1114       C  0.63591613  0.25290607  0.72767779    -0.24200
H1115       H  0.54243161  0.24935061  0.89912000     0.05000
H1116       H  0.54163020  0.28696297  0.88836133     0.08200
H1117       H  0.56813962  0.27146674  0.92932365     0.08200
H1118       H  0.62417742  0.24981041  0.69222380     0.08200
H1119       H  0.65022376  0.23436461  0.73435622     0.08200
H1120       H  0.64953049  0.27193719  0.72332149     0.05000
C1121       C  0.49112249  0.11473112  0.13262051    -0.20800
C1122       C  0.50307362  0.14122021  0.14391831    -0.07400
C1123       C  0.48640050  0.16616225  0.13850540     0.13500
C1124       C  0.45758594  0.16382029  0.12659927    -0.20900
C1125       C  0.44454620  0.13718648  0.12018279    -0.07400
C1126       C  0.46202764  0.11228726  0.12088815     0.13500
C1127       C  0.45040595  0.08306884  0.11081839    -0.24200
H1128       H  0.50430055  0.09570595  0.13542760     0.14800
H1129       H  0.44498279  0.18321062  0.12382481     0.14800
C1130       C  0.49887515  0.19544092  0.14451140    -0.24200
H1131       H  0.46732608  0.06637188  0.11227205     0.05000
H1132       H  0.44095804  0.08240523  0.07289835     0.08200
H1133       H  0.43406399  0.07768870  0.13936356     0.08200
H1134       H  0.51758466  0.19768619  0.11924202     0.08200
H1135       H  0.50539380  0.19901370  0.18376287     0.08200
H1136       H  0.48326355  0.21249216  0.13497645     0.05000
C1137       C  0.62598965  0.17034822  0.96588312    -0.20800
C1138       C  0.60734657  0.15388638  0.99509689    -0.07400
C1139       C  0.58632888  0.13756470  0.97092290     0.13500
C1140       C  0.58522459  0.13744712  0.91856515    -0.20900
C1141       C  0.60453535  0.15300977  0.88936762    -0.07400
C1142       C  0.62475755  0.17030138  0.91342875     0.13500
C1143       C  0.64451845  0.18936000  0.88438551    -0.24200
H1144       H  0.64193031  0.18309621  0.98426625     0.14800
H1145       H  0.56933362  0.12465647  0.90013805     0.14800
C1146       C  0.56570341  0.11921317  0.99952639    -0.24200
H1147       H  0.65773567  0.20254456  0.90950816     0.05000
H1148       H  0.63193512  0.20402032  0.86036859     0.08200
H1149       H  0.65925232  0.17635275  0.86083271     0.08200
H1150       H  0.55186848  0.13272679  0.02389390     0.08200
H1151       H  0.57755892  0.10347853  0.02256923     0.08200
H1152       H  0.55155396  0.10718190  0.97419702     0.05000
C1153       C  0.63052023  0.15557687  0.46523253    -0.20800
C1154       C  0.61082641  0.14078775  0.49504294    -0.07400
C1155       C  0.58982178  0.12420460  0.47145596     0.13500
C1156       C  0.58942155  0.12267057  0.41899944    -0.20900
C1157       C  0.60924891  0.13737020  0.38926301    -0.07400
C1158       C  0.62993681  0.15430738  0.41290713     0.13500
C1159       C  0.65071757  0.17215550  0.38361267    -0.24200
H1160       H  0.64650554  0.16849842  0.48311482     0.14800
H1161       H  0.57319927  0.11012787  0.40094377     0.14800
C1162       C  0.56813523  0.10760462  0.50092591    -0.24200
H1163       H  0.66442942  0.18499323  0.40846520     0.05000
H1164       H  0.63896597  0.18715135  0.35896637     0.08200
H1165       H  0.66496154  0.15822097  0.36077380     0.08200
H1166       H  0.55432291  0.12240398  0.52292032     0.08200
H1167       H  0.57909010  0.09249062  0.52645443     0.08200
H1168       H  0.55407833  0.09507465  0.47618426     0.05000
C1169       C  0.57304436  0.23523765  0.32587433    -0.20800
C1170       C  0.59595117  0.22736464  0.29395907    -0.07400
C1171       C  0.62004387  0.24541020  0.29241250     0.13500
C1172       C  0.61973718  0.27098562  0.32027635    -0.20900
C1173       C  0.59629764  0.27912474  0.35032297    -0.07400
C1174       C  0.57295848  0.26052967  0.35403265     0.13500
C1175       C  0.54816481  0.26675205  0.38876633    -0.24200
H1176       H  0.55492654  0.22131223  0.32955968     0.14800
H1177       H  0.63759973  0.28530691  0.31712204     0.14800
C1178       C  0.64605395  0.23841515  0.26118004    -0.24200
H1179       H  0.53304386  0.24875922  0.39027383     0.05000
H1180       H  0.53603851  0.28573700  0.37598911     0.08200
H1181       H  0.55608528  0.27042801  0.42723979     0.08200
H1182       H  0.63993480  0.23557789  0.22147639     0.08200
H1183       H  0.65651166  0.21874126  0.27532408     0.08200
H1184       H  0.66205467  0.25562080  0.26270372     0.05000
C1185       C  0.87774690  0.91276601  0.55071024    -0.20800
C1186       C  0.86740734  0.89060731  0.52037360    -0.07400
C1187       C  0.85629841  0.86598313  0.54379674     0.13500
C1188       C  0.85550979  0.86461392  0.59609153    -0.20900
C1189       C  0.86492800  0.88716533  0.62604081    -0.07400
C1190       C  0.87636921  0.91155841  0.60301714     0.13500
C1191       C  0.88763405  0.93620455  0.63298685    -0.24200
H1192       H  0.88648629  0.93162985  0.53345378     0.14800
H1193       H  0.84687738  0.84583954  0.61388828     0.14800
C1194       C  0.84439103  0.84127057  0.51481759    -0.24200
H1195       H  0.89710819  0.95277310  0.60863647     0.05000
H1196       H  0.90443323  0.92857744  0.65890249     0.08200
H1197       H  0.87006259  0.94650786  0.65460488     0.08200
H1198       H  0.86125848  0.83167222  0.49064336     0.08200
H1199       H  0.82615576  0.84856540  0.49177898     0.08200
H1200       H  0.83645982  0.82419716  0.53980392     0.05000
C1201       C  0.86927160  0.91489739  0.04806132    -0.20800
C1202       C  0.85592140  0.89358073  0.01964220    -0.07400
C1203       C  0.84179596  0.87136132  0.04516005     0.13500
C1204       C  0.84151018  0.87118387  0.09758950    -0.20900
C1205       C  0.85515554  0.89226910  0.12579059    -0.07400
C1206       C  0.86912447  0.91455745  0.10053829     0.13500
C1207       C  0.88481520  0.93748869  0.12825457    -0.24200
H1208       H  0.88015731  0.93203233  0.02908022     0.14800
H1209       H  0.83078629  0.85404434  0.11689088     0.14800
C1210       C  0.82653318  0.84791601  0.01810070    -0.24200
H1211       H  0.89537210  0.95256189  0.10230637     0.05000
H1212       H  0.90155498  0.92774090  0.15207296     0.08200
H1213       H  0.86967075  0.95000666  0.15185785     0.08200
H1214       H  0.84190251  0.83529413  0.99512847     0.08200
H1215       H  0.80975595  0.85721904  0.99403351     0.08200
H1216       H  0.81603565  0.83297694  0.04436949     0.05000
C1217       C  0.65300372  0.01015842  0.62880755    -0.20800
C1218       C  0.62775085  0.99562290  0.61951790    -0.07400
C1219       C  0.60139445  0.01013482  0.62567984     0.13500
C1220       C  0.60120427  0.03958429  0.63606061    -0.20900
C1221       C  0.62673085  0.05481160  0.64093535    -0.07400
C1222       C  0.65296815  0.03929430  0.64015329     0.13500
C1223       C  0.68127433  0.05286888  0.65099974    -0.24200
H1224       H  0.67312415  0.99869226  0.62570949     0.14800
H1225       H  0.58100873  0.05095696  0.63792300     0.14800
C1226       C  0.57353907  0.99507596  0.61870020    -0.24200
H1227       H  0.69864701  0.03673913  0.65432533     0.05000
H1228       H  0.68002809  0.06467488  0.68697632     0.08200
H1229       H  0.68745535  0.06737582  0.62021152     0.08200
H1230       H  0.57150116  0.97780023  0.64673085     0.08200
H1231       H  0.57259340  0.98586803  0.58049219     0.08200
H1232       H  0.55502711  0.00977942  0.62362579     0.05000
C1233       C  0.52975280  0.90112742  0.63921491    -0.20800
C1234       C  0.54312956  0.87609044  0.62127952    -0.07400
C1235       C  0.52619314  0.85177507  0.61212308     0.13500
C1236       C  0.49707738  0.85263525  0.62421415    -0.20900
C1237       C  0.48427601  0.87701111  0.64487337    -0.07400
C1238       C  0.50055442  0.90177591  0.65152440     0.13500
C1239       C  0.48752710  0.92829167  0.67426767    -0.24200
H1240       H  0.54246798  0.91980585  0.64628480     0.14800
H1241       H  0.48429986  0.83379178  0.61897870     0.14800
C1242       C  0.53836388  0.82472574  0.58964619    -0.24200
H1243       H  0.50334681  0.94557294  0.67774931     0.05000
H1244       H  0.47911133  0.92350585  0.71220704     0.08200
H1245       H  0.46984939  0.93615162  0.65045485     0.08200
H1246       H  0.55296799  0.81409299  0.61633640     0.08200
H1247       H  0.54988134  0.82962480  0.55434778     0.08200
H1248       H  0.52142327  0.80924797  0.58070143     0.05000
C1249       C  0.73198179  0.93047399  0.44892897    -0.20800
C1250       C  0.72336601  0.90620356  0.47609646    -0.07400
C1251       C  0.74125914  0.88158084  0.47364283     0.13500
C1252       C  0.76694019  0.88235154  0.44570714    -0.20900
C1253       C  0.77529619  0.90676145  0.41920601    -0.07400
C1254       C  0.75710854  0.93093405  0.42015073     0.13500
C1255       C  0.76336163  0.95705307  0.38927546    -0.24200
H1256       H  0.71856906  0.94938263  0.44886649     0.14800
H1257       H  0.78094927  0.86385300  0.44540367     0.14800
C1258       C  0.73378499  0.85433879  0.50004016    -0.24200
H1259       H  0.74541904  0.97266653  0.39041959     0.05000
H1260       H  0.76689972  0.95084153  0.34960406     0.08200
H1261       H  0.78240179  0.96807087  0.40358482     0.08200
H1262       H  0.71400158  0.84547942  0.48413007     0.08200
H1263       H  0.73090098  0.85841822  0.54067410     0.08200
H1264       H  0.75077338  0.83785446  0.49557362     0.05000
C1265       C  0.61147806  0.03930161  0.14851389    -0.20800
C1266       C  0.62326509  0.05803220  0.11326314    -0.07400
C1267       C  0.63535205  0.04673006  0.06878988     0.13500
C1268       C  0.63646216  0.01719869  0.06181135    -0.20900
C1269       C  0.62595950  0.99810869  0.09785400    -0.07400
C1270       C  0.61269504  0.00949440  0.14154880     0.13500
C1271       C  0.60017412  0.99067011  0.18137148    -0.24200
H1272       H  0.60190146  0.04802890  0.18229935     0.14800
H1273       H  0.64589031  0.00901044  0.02751777     0.14800
C1274       C  0.64656859  0.06560984  0.02760666    -0.24200
H1275       H  0.59126623  0.00324789  0.21315749     0.05000
H1276       H  0.61687517  0.97617530  0.19637666     0.08200
H1277       H  0.58256667  0.97807930  0.16543977     0.08200
H1278       H  0.66574265  0.07703937  0.04034609     0.08200
H1279       H  0.62986098  0.08119323  0.01632013     0.08200
H1280       H  0.65289615  0.05317793  0.99386493     0.05000
C1281       C  0.49789619  0.89867740  0.14382759    -0.20800
C1282       C  0.48489527  0.87195850  0.14381223    -0.07400
C1283       C  0.50076322  0.84772581  0.12900035     0.13500
C1284       C  0.52988302  0.85036450  0.11872877    -0.20900
C1285       C  0.54387524  0.87661988  0.12330209    -0.07400
C1286       C  0.52722552  0.90142695  0.13379849     0.13500
C1287       C  0.54000669  0.93066960  0.13638836    -0.24200
H1288       H  0.48530462  0.91729732  0.15418410     0.14800
H1289       H  0.54194827  0.83140870  0.10847448     0.14800
C1290       C  0.48699920  0.81904718  0.12355517    -0.24200
H1291       H  0.52371644  0.94731813  0.14512875     0.05000
H1292       H  0.54980449  0.93613968  0.09978898     0.08200
H1293       H  0.55628855  0.93129532  0.16623279     0.08200
H1294       H  0.46898546  0.82066818  0.09699023     0.08200
H1295       H  0.47902435  0.81154094  0.16031025     0.08200
H1296       H  0.50223267  0.80272438  0.10896497     0.05000
C1297       C  0.60716346  0.90331226  0.83900039    -0.20800
C1298       C  0.62654562  0.88724823  0.86761769    -0.07400
C1299       C  0.64695271  0.86966353  0.84284475     0.13500
C1300       C  0.64778805  0.86926340  0.79047969    -0.20900
C1301       C  0.62893009  0.88588548  0.76209649    -0.07400
C1302       C  0.60792791  0.90267086  0.78656023     0.13500
C1303       C  0.58569728  0.91908735  0.75769982    -0.24200
H1304       H  0.59143545  0.91665927  0.85785117     0.14800
H1305       H  0.66343170  0.85592595  0.77136139     0.14800
C1306       C  0.66864886  0.85203341  0.87083412    -0.24200
H1307       H  0.57016585  0.93001065  0.78294823     0.05000
H1308       H  0.57369262  0.90434043  0.73336915     0.08200
H1309       H  0.59599787  0.93557469  0.73431049     0.08200
H1310       H  0.65774690  0.83585318  0.89406722     0.08200
H1311       H  0.68164698  0.86599036  0.89491219     0.08200
H1312       H  0.68344335  0.84048064  0.84509186     0.05000
C1313       C  0.64876626  0.91133021  0.28315518    -0.20800
C1314       C  0.63361846  0.88860530  0.26278105    -0.07400
C1315       C  0.62003124  0.86910817  0.29587806     0.13500
C1316       C  0.62244645  0.87271632  0.34771033    -0.20900
C1317       C  0.63740875  0.89543882  0.36793402    -0.07400
C1318       C  0.65096731  0.91497179  0.33518919     0.13500
C1319       C  0.66877483  0.93908209  0.35455114    -0.24200
H1320       H  0.65935656  0.92606133  0.25823944     0.14800
H1321       H  0.61200598  0.85796618  0.37280601     0.14800
C1322       C  0.60195951  0.84484971  0.27761160    -0.24200
H1323       H  0.67953962  0.95070400  0.32375500     0.05000
H1324       H  0.68550430  0.93052634  0.37962628     0.08200
H1325       H  0.65522864  0.95475203  0.37505328     0.08200
H1326       H  0.61544685  0.82850902  0.25862327     0.08200
H1327       H  0.58538791  0.85303127  0.25174704     0.08200
H1328       H  0.59084999  0.83394456  0.30884987     0.05000
C1329       C  0.72337411  0.92714394  0.92939050    -0.20800
C1330       C  0.71617538  0.90393127  0.96046132    -0.07400
C1331       C  0.73482753  0.87986058  0.96051759     0.13500
C1332       C  0.76016651  0.88044292  0.93187649    -0.20900
C1333       C  0.76790980  0.90446594  0.90386911    -0.07400
C1334       C  0.74874897  0.92772408  0.90137611     0.13500
C1335       C  0.75455289  0.95298312  0.86818891    -0.24200
H1336       H  0.70907464  0.94532212  0.92676802     0.14800
H1337       H  0.77465984  0.86235804  0.93294626     0.14800
C1338       C  0.72868179  0.85351019  0.99059441    -0.24200
H1339       H  0.73616413  0.96805850  0.86736617     0.05000
H1340       H  0.75870439  0.94561064  0.82930655     0.08200
H1341       H  0.77315868  0.96494653  0.88188721     0.08200
H1342       H  0.70881764  0.84357286  0.97718325     0.08200
H1343       H  0.72661247  0.85906927  0.03083086     0.08200
H1344       H  0.74601615  0.83732344  0.98696118     0.05000
C1345       C  0.82579525  0.74747474  0.77517196    -0.20800
C1346       C  0.82721233  0.72819862  0.81476210    -0.07400
C1347       C  0.82503981  0.73863880  0.86453201     0.13500
C1348       C  0.82709067  0.76797514  0.87366501    -0.20900
C1349       C  0.83032997  0.78695389  0.83396742    -0.07400
C1350       C  0.82685543  0.77688064  0.78430356     0.13500
C1351       C  0.82560600  0.79660483  0.74005537    -0.24200
H1352       H  0.82658291  0.73965254  0.73700534     0.14800
H1353       H  0.82867125  0.77565593  0.91179660     0.14800
C1354       C  0.82245165  0.71907787  0.90883351    -0.24200
H1355       H  0.80613300  0.79221816  0.71815008     0.05000
H1356       H  0.84459614  0.79310713  0.71573426     0.08200
H1357       H  0.82445040  0.81926659  0.75143888     0.08200
H1358       H  0.84184023  0.72048579  0.93219774     0.08200
H1359       H  0.81938005  0.69662800  0.89742125     0.08200
H1360       H  0.80361602  0.72551431  0.93171658     0.05000
C1361       C  0.83320007  0.73936450  0.35774674    -0.20800
C1362       C  0.83675804  0.72975096  0.30805687    -0.07400
C1363       C  0.83924514  0.74978447  0.26939654     0.13500
C1364       C  0.84140489  0.77872755  0.28179613    -0.20900
C1365       C  0.84142515  0.78796800  0.33201263    -0.07400
C1366       C  0.83562417  0.76831830  0.37025332     0.13500
C1367       C  0.83462138  0.77738569  0.42428389    -0.24200
H1368       H  0.83129808  0.72381204  0.38746057     0.14800
H1369       H  0.84524414  0.79402092  0.25226432     0.14800
C1370       C  0.84206851  0.74045291  0.21567943    -0.24200
H1371       H  0.83038303  0.75914738  0.44952201     0.05000
H1372       H  0.81739073  0.79347956  0.42996642     0.08200
H1373       H  0.85532101  0.78673431  0.43496799     0.08200
H1374       H  0.82287778  0.72839404  0.20478837     0.08200
H1375       H  0.86122966  0.72661786  0.21084583     0.08200
H1376       H  0.84415583  0.75890389  0.19005506     0.05000
C1377       C  0.87867072  0.60949936  0.59839330    -0.20800
C1378       C  0.85958457  0.62590351  0.62768870    -0.07400
C1379       C  0.83939691  0.64367301  0.60331473     0.13500
C1380       C  0.83914844  0.64463524  0.55085349    -0.20900
C1381       C  0.85796096  0.62792326  0.52180696    -0.07400
C1382       C  0.87808415  0.61018942  0.54594145     0.13500
C1383       C  0.89958243  0.59260810  0.51679784    -0.24200
H1384       H  0.89409827  0.59579109  0.61670711     0.14800
H1385       H  0.82391545  0.65842059  0.53219221     0.14800
C1386       C  0.81725162  0.66084672  0.63174902    -0.24200
H1387       H  0.91447746  0.58099353  0.54181294     0.05000
H1388       H  0.91239929  0.60661464  0.49218198     0.08200
H1389       H  0.88850986  0.57654007  0.49376371     0.08200
H1390       H  0.82770499  0.67700541  0.65548526     0.08200
H1391       H  0.80422215  0.64651859  0.65534087     0.08200
H1392       H  0.80253293  0.67237743  0.60630098     0.05000
C1393       C  0.87844205  0.63954534  0.10535926    -0.20800
C1394       C  0.85861620  0.62124156  0.12699314    -0.07400
C1395       C  0.84022464  0.60545447  0.09590291     0.13500
C1396       C  0.84211857  0.60845379  0.04385782    -0.20900
C1397       C  0.86176604  0.62691775  0.02201758    -0.07400
C1398       C  0.88052858  0.64239573  0.05319609     0.13500
C1399       C  0.90357413  0.66108419  0.03196107    -0.24200
H1400       H  0.89271911  0.65120366  0.12938297     0.14800
H1401       H  0.82767497  0.59683590  0.02009013     0.14800
C1402       C  0.81776369  0.58619157  0.11735757    -0.24200
H1403       H  0.91775740  0.66926574  0.06164816     0.05000
H1404       H  0.89406618  0.67984357  0.01298307     0.08200
H1405       H  0.91695112  0.64870402  0.00505254     0.08200
H1406       H  0.80349722  0.59858747  0.14263889     0.08200
H1407       H  0.82781229  0.56841415  0.13827554     0.08200
H1408       H  0.80441781  0.57668500  0.08769913     0.05000
C1409       C  0.66323156  0.73661020  0.53476333    -0.20800
C1410       C  0.65627084  0.72794464  0.58381431    -0.07400
C1411       C  0.65166320  0.74883744  0.62076498     0.13500
C1412       C  0.65099981  0.77769831  0.60677687    -0.20900
C1413       C  0.65469890  0.78625510  0.55652365    -0.07400
C1414       C  0.66271356  0.76557331  0.52077444     0.13500
C1415       C  0.66854227  0.77376484  0.46735960    -0.24200
H1416       H  0.66683911  0.72046890  0.50631363     0.14800
H1417       H  0.64548318  0.79356971  0.63477335     0.14800
C1418       C  0.64527167  0.74057189  0.67403393    -0.24200
H1419       H  0.67422601  0.75492639  0.44402994     0.05000
H1420       H  0.68660889  0.78879545  0.46590824     0.08200
H1421       H  0.64937643  0.78413713  0.45110316     0.08200
H1422       H  0.66342451  0.72801428  0.68918916     0.08200
H1423       H  0.62572746  0.72751176  0.67565339     0.08200
H1424       H  0.64186768  0.75953844  0.69830274     0.05000
C1425       C  0.65520038  0.50017454  0.51878990    -0.20800
C1426       C  0.62983428  0.51588252  0.52260815    -0.07400
C1427       C  0.60384787  0.50246517  0.51100165     0.13500
C1428       C  0.60393092  0.47313881  0.49908632    -0.20900
C1429       C  0.62937603  0.45686037  0.49806223    -0.07400
C1430       C  0.65558123  0.47120293  0.50644223     0.13500
C1431       C  0.68445754  0.45668844  0.50330980    -0.24200
H1432       H  0.67511709  0.51070021  0.52664835     0.14800
H1433       H  0.58385122  0.46273821  0.49220748     0.14800
C1434       C  0.57592764  0.51855477  0.51332057    -0.24200
H1435       H  0.70216858  0.47199069  0.50723902     0.05000
H1436       H  0.68717854  0.44613405  0.46636995     0.08200
H1437       H  0.68686553  0.44102224  0.53404782     0.08200
H1438       H  0.57604257  0.53614144  0.48565522     0.08200
H1439       H  0.57254483  0.52746305  0.55141163     0.08200
H1440       H  0.55765215  0.50462310  0.50460548     0.05000
C1441       C  0.50088023  0.66147431  0.50861409    -0.20800
C1442       C  0.48849046  0.63708800  0.48847864    -0.07400
C1443       C  0.50526003  0.61229268  0.48128425     0.13500
C1444       C  0.53447199  0.61288825  0.49248612    -0.20900
C1445       C  0.54739770  0.63786521  0.51005568    -0.07400
C1446       C  0.53003057  0.66222936  0.51978546     0.13500
C1447       C  0.54178593  0.68912211  0.54213720    -0.24200
H1448       H  0.48774723  0.68036792  0.51423938     0.14800
H1449       H  0.54751413  0.59412604  0.48515700     0.14800
C1450       C  0.49268860  0.58574508  0.45926554    -0.24200
H1451       H  0.52462549  0.70480088  0.55127827     0.05000
H1452       H  0.55643287  0.69953071  0.51528254     0.08200
H1453       H  0.55320581  0.68407218  0.57729397     0.08200
H1454       H  0.48392603  0.59046075  0.42168537     0.08200
H1455       H  0.47534061  0.57795163  0.48392491     0.08200
H1456       H  0.50886916  0.56843967  0.45516574     0.05000
C1457       C  0.73034555  0.63073539  0.69011386    -0.20800
C1458       C  0.72316506  0.60653387  0.66203450    -0.07400
C1459       C  0.74166204  0.58258097  0.66381134     0.13500
C1460       C  0.76578753  0.58312892  0.69476970    -0.20900
C1461       C  0.77256549  0.60694865  0.72471641    -0.07400
C1462       C  0.75422445  0.63117659  0.72196714     0.13500
C1463       C  0.75937288  0.65775141  0.75199672    -0.24200
H1464       H  0.71671349  0.64938370  0.68801034     0.14800
H1465       H  0.77966361  0.56455294  0.69494345     0.14800
C1466       C  0.73686703  0.55666892  0.63163359    -0.24200
H1467       H  0.74223657  0.67394138  0.74665112     0.05000
H1468       H  0.77968106  0.66749914  0.73999461     0.08200
H1469       H  0.76001511  0.65253171  0.79244924     0.08200
H1470       H  0.73459476  0.56318254  0.59195358     0.08200
H1471       H  0.71753474  0.54527226  0.64405091     0.08200
H1472       H  0.75497526  0.54130143  0.63373969     0.05000
C1473       C  0.65990179  0.73587129  0.03151505    -0.20800
C1474       C  0.65773186  0.72753834  0.08204240    -0.07400
C1475       C  0.65890139  0.74839355  0.11967161     0.13500
C1476       C  0.65814632  0.77724800  0.10583175    -0.20900
C1477       C  0.65629322  0.78551847  0.05525871    -0.07400
C1478       C  0.65914425  0.76472073  0.01765776     0.13500
C1479       C  0.65877135  0.77278174  0.96320217    -0.24200
H1480       H  0.65949189  0.71968558  0.00257831     0.14800
H1481       H  0.65648387  0.79340008  0.13475729     0.14800
C1482       C  0.65845035  0.74026981  0.17410149    -0.24200
H1483       H  0.66089663  0.75380058  0.93857072     0.05000
H1484       H  0.67678727  0.78718138  0.95493343     0.08200
H1485       H  0.63842510  0.78384196  0.95419562     0.08200
H1486       H  0.67723583  0.72654504  0.18242344     0.08200
H1487       H  0.63871345  0.72844908  0.18297768     0.08200
H1488       H  0.65917817  0.75928492  0.19878478     0.05000
C1489       C  0.60249997  0.50447691  0.02705032    -0.20800
C1490       C  0.62872617  0.51826155  0.02234244    -0.07400
C1491       C  0.65250886  0.50308657  0.00332262     0.13500
C1492       C  0.64998632  0.47404230  0.99229236    -0.20900
C1493       C  0.62433354  0.45942161  0.00037498    -0.07400
C1494       C  0.59998311  0.47516231  0.01681891     0.13500
C1495       C  0.57172244  0.46117906  0.02635835    -0.24200
H1496       H  0.58427334  0.51637885  0.04139611     0.14800
H1497       H  0.66856101  0.46248599  0.97851106     0.14800
C1498       C  0.68061050  0.51753318  0.99444198    -0.24200
H1499       H  0.55550158  0.47658125  0.04075984     0.05000
H1500       H  0.57422445  0.44408084  0.05466555     0.08200
H1501       H  0.56345700  0.45210562  0.99104389     0.08200
H1502       H  0.68941347  0.52523538  0.03031845     0.08200
H1503       H  0.67753699  0.53583250  0.96873079     0.08200
H1504       H  0.69661946  0.50283201  0.97731061     0.05000
C1505       C  0.50171049  0.66704946  0.99651826    -0.20800
C1506       C  0.48754717  0.64128383  0.98969748    -0.07400
C1507       C  0.50258482  0.61543995  0.99721895     0.13500
C1508       C  0.53196582  0.61607839  0.00742615    -0.20900
C1509       C  0.54673716  0.64194894  0.01111842    -0.07400
C1510       C  0.53082868  0.66787978  0.00778805     0.13500
C1511       C  0.54389177  0.69673280  0.01595160    -0.24200
H1512       H  0.48990897  0.68684123  0.99187578     0.14800
H1513       H  0.54359596  0.59612855  0.01085305     0.14800
C1514       C  0.48807954  0.58715709  0.99246225    -0.24200
H1515       H  0.52756523  0.71404259  0.01634020     0.05000
H1516       H  0.55908351  0.70164263  0.98528611     0.08200
H1517       H  0.55485461  0.69720470  0.05259224     0.08200
H1518       H  0.47853778  0.58508530  0.95478457     0.08200
H1519       H  0.47116501  0.58553214  0.02146078     0.08200
H1520       H  0.50318768  0.56906721  0.99780023     0.05000
C1521       C  0.65014528  0.64562547  0.84461836    -0.20800
C1522       C  0.63667914  0.62491109  0.87410304    -0.07400
C1523       C  0.62157010  0.60291625  0.85022093     0.13500
C1524       C  0.62083210  0.60208884  0.79782097    -0.20900
C1525       C  0.63435038  0.62280894  0.76827033    -0.07400
C1526       C  0.64886811  0.64518834  0.79233432     0.13500
C1527       C  0.66349377  0.66854466  0.76380421    -0.24200
H1528       H  0.66156874  0.66265971  0.86274393     0.14800
H1529       H  0.60948262  0.58499991  0.77972894     0.14800
C1530       C  0.60536133  0.58077199  0.87924246    -0.24200
H1531       H  0.67442843  0.68368884  0.78895765     0.05000
H1532       H  0.67975638  0.65919376  0.73845393     0.08200
H1533       H  0.64762902  0.68090603  0.74193868     0.08200
H1534       H  0.58935849  0.59130109  0.90409405     0.08200
H1535       H  0.62030272  0.56770970  0.90185202     0.08200
H1536       H  0.59380680  0.56605157  0.85418687     0.05000
C1537       C  0.65528673  0.64026612  0.34524690    -0.20800
C1538       C  0.63756300  0.62266931  0.37390455    -0.07400
C1539       C  0.61836880  0.60441662  0.34965462     0.13500
C1540       C  0.61727478  0.60444815  0.29730771    -0.20900
C1541       C  0.63488518  0.62216964  0.26853641    -0.07400
C1542       C  0.65442546  0.64011602  0.29291786     0.13500
C1543       C  0.67523520  0.65828312  0.26438810    -0.24200
H1544       H  0.66989531  0.65433696  0.36410378     0.14800
H1545       H  0.60260405  0.59038872  0.27860149     0.14800
C1546       C  0.59833232  0.58561473  0.37858830    -0.24200
H1547       H  0.68974917  0.66985601  0.28974429     0.05000
H1548       H  0.66361741  0.67442268  0.24188993     0.08200
H1549       H  0.68856889  0.64462980  0.23949397     0.08200
H1550       H  0.58472850  0.59878174  0.40394569     0.08200
H1551       H  0.61068234  0.56990613  0.40085035     0.08200
H1552       H  0.58410020  0.57354666  0.35345496     0.05000
C1553       C  0.76303249  0.63244644  0.20417851    -0.20800
C1554       C  0.77103473  0.60835033  0.23224164    -0.07400
C1555       C  0.75354339  0.58406059  0.22998700     0.13500
C1556       C  0.72964866  0.58407779  0.19856004    -0.20900
C1557       C  0.72165362  0.60791504  0.16949449    -0.07400
C1558       C  0.73861823  0.63275183  0.17344764     0.13500
C1559       C  0.73136935  0.65986250  0.14605571    -0.24200
H1560       H  0.77650017  0.65102128  0.20516468     0.14800
H1561       H  0.71671103  0.56515103  0.19781536     0.14800
C1562       C  0.75920852  0.55820915  0.26201490    -0.24200
H1563       H  0.74756572  0.67654283  0.15211133     0.05000
H1564       H  0.71070543  0.66858033  0.15986956     0.08200
H1565       H  0.73031769  0.65569194  0.10524563     0.08200
H1566       H  0.76116621  0.56475123  0.30175502     0.08200
H1567       H  0.77893323  0.54700944  0.24959907     0.08200
H1568       H  0.74165620  0.54262248  0.25972926     0.05000
C1569       C  0.22577501  0.84474883  0.72604059    -0.20800
C1570       C  0.21795918  0.84865029  0.67567891    -0.07400
C1571       C  0.23913417  0.84816629  0.63832095     0.13500
C1572       C  0.26782175  0.84728714  0.65264376    -0.20900
C1573       C  0.27567606  0.84743962  0.70346232    -0.07400
C1574       C  0.25454500  0.84398078  0.74037737     0.13500
C1575       C  0.26221386  0.84183124  0.79479854    -0.24200
H1576       H  0.20929591  0.84470029  0.75465480     0.14800
H1577       H  0.28420367  0.84928100  0.62413442     0.14800
C1578       C  0.23157427  0.85124633  0.58394875    -0.24200
H1579       H  0.24301418  0.83939985  0.81885019     0.05000
H1580       H  0.27347667  0.86130583  0.80680154     0.08200
H1581       H  0.27632010  0.82300133  0.80059432     0.08200
H1582       H  0.22019010  0.87178291  0.57782968     0.08200
H1583       H  0.21761275  0.83348016  0.57261246     0.08200
H1584       H  0.25082000  0.85079529  0.55954562     0.05000
C1585       C  0.99449529  0.89850786  0.74970563    -0.20800
C1586       C  0.00751477  0.87226520  0.73785510    -0.07400
C1587       C  0.99183810  0.84704875  0.74429878     0.13500
C1588       C  0.96321434  0.84881975  0.75927359    -0.20900
C1589       C  0.94909717  0.87515371  0.76698088    -0.07400
C1590       C  0.96547299  0.90038863  0.76363726     0.13500
C1591       C  0.95268873  0.92944109  0.77312480    -0.24200
H1592       H  0.00673862  0.91780177  0.74557579     0.14800
H1593       H  0.95151946  0.82918115  0.76281318     0.14800
C1594       C  0.00512898  0.81800349  0.73585123    -0.24200
H1595       H  0.96887767  0.94645244  0.77075809     0.05000
H1596       H  0.94301892  0.93031984  0.81111878     0.08200
H1597       H  0.93635098  0.93408670  0.74449106     0.08200
H1598       H  0.02464730  0.81570987  0.75875929     0.08200
H1599       H  0.01053438  0.81496124  0.69574623     0.08200
H1600       H  0.99043647  0.80065222  0.74657459    -0.07800
C1601       C  0.15104039  0.97587577  0.73802531    -0.20800
C1602       C  0.12532727  0.96088182  0.74268370    -0.07400
C1603       C  0.09994147  0.97651297  0.75406251     0.13500
C1604       C  0.10164054  0.00578182  0.76488246    -0.20900
C1605       C  0.12781460  0.01979354  0.76462424    -0.07400
C1606       C  0.15256923  0.00503587  0.74875651     0.13500
C1607       C  0.18057577  0.02007052  0.74256711    -0.24200
H1608       H  0.17038389  0.96457245  0.72724467     0.14800
H1609       H  0.08260306  0.01754552  0.77593403     0.14800
C1610       C  0.07109614  0.96276110  0.75656483    -0.24200
H1611       H  0.19746543  0.00560981  0.72753250     0.05000
H1612       H  0.18791679  0.02829532  0.77911119     0.08200
H1613       H  0.17799484  0.03807083  0.71605354     0.08200
H1614       H  0.07089659  0.94594179  0.78554919     0.08200
H1615       H  0.06584941  0.95343876  0.71963755     0.08200
H1616       H  0.05396004  0.97835644  0.76627394     0.05000
C1617       C  0.23860240  0.83960317  0.14075687    -0.20800
C1618       C  0.21826902  0.84076674  0.17900069    -0.07400
C1619       C  0.22733689  0.83722831  0.22926085     0.13500
C1620       C  0.25650494  0.83802459  0.24055368    -0.20900
C1621       C  0.27675945  0.84090995  0.20248172    -0.07400
C1622       C  0.26777063  0.83890175  0.15194484     0.13500
C1623       C  0.28850517  0.83727658  0.10889374    -0.24200
H1624       H  0.23188129  0.84147415  0.10218243     0.14800
H1625       H  0.26318102  0.83863279  0.27926854     0.14800
C1626       C  0.20661050  0.83392042  0.27197242    -0.24200
H1627       H  0.28288636  0.81922991  0.08411278     0.05000
H1628       H  0.31054691  0.83319566  0.12169884     0.08200
H1629       H  0.28753954  0.85731544  0.08697836     0.08200
H1630       H  0.18455605  0.83085154  0.25872624     0.08200
H1631       H  0.20735134  0.85288513  0.29676095     0.08200
H1632       H  0.21244765  0.81472683  0.29398554     0.05000
C1633       C  0.99549713  0.90016448  0.24238509    -0.20800
C1634       C  0.00833038  0.87349057  0.23321635    -0.07400
C1635       C  0.99199120  0.84868844  0.23891946     0.13500
C1636       C  0.96298281  0.85119746  0.25075198    -0.20900
C1637       C  0.94925239  0.87788370  0.25627472    -0.07400
C1638       C  0.96612732  0.90280505  0.25339633     0.13500
C1639       C  0.95356727  0.93225621  0.26022630    -0.24200
H1640       H  0.00826034  0.91912978  0.23854406     0.14800
H1641       H  0.95081062  0.83185405  0.25440008     0.14800
C1642       C  0.00505240  0.81934422  0.23313938    -0.24200
H1643       H  0.96996411  0.94899099  0.25649422     0.05000
H1644       H  0.94395946  0.93432963  0.29813119     0.08200
H1645       H  0.93715968  0.93638960  0.23137052     0.08200
H1646       H  0.02346755  0.81699070  0.25867638     0.08200
H1647       H  0.01218309  0.81579149  0.19398125     0.08200
H1648       H  0.98961002  0.80237471  0.24237375     0.05000
C1649       C  0.11887333  0.97455818  0.22004820    -0.20800
C1650       C  0.12912580  0.95557147  0.25630971    -0.07400
C1651       C  0.13952095  0.96629709  0.30188224     0.13500
C1652       C  0.13981522  0.99570893  0.30986961    -0.20900
C1653       C  0.13058469  0.01513662  0.27323050    -0.07400
C1654       C  0.11982457  0.00429214  0.22757580     0.13500
C1655       C  0.11033173  0.02365530  0.18599200    -0.24200
H1656       H  0.11095039  0.96609341  0.18514150     0.14800
H1657       H  0.14764618  0.00354419  0.34527674     0.14800
C1658       C  0.15006658  0.94675651  0.34272087    -0.24200
H1659       H  0.10377171  0.01148404  0.15242186     0.05000
H1660       H  0.12810506  0.03772450  0.17476111     0.08200
H1661       H  0.09177180  0.03672956  0.19850382     0.08200
H1662       H  0.16909657  0.93458906  0.32962244     0.08200
H1663       H  0.13305904  0.93172098  0.35355739     0.08200
H1664       H  0.15626695  0.95873608  0.37671187     0.05000
C1665       C  0.09853500  0.89319466  0.96229777    -0.20800
C1666       C  0.11597861  0.87457663  0.99018208    -0.07400
C1667       C  0.13380864  0.85485108  0.96428411     0.13500
C1668       C  0.13341645  0.85422252  0.91183173    -0.20900
C1669       C  0.11564501  0.87251066  0.88433389    -0.07400
C1670       C  0.09823379  0.89249328  0.90986002     0.13500
C1671       C  0.08032544  0.91394505  0.88203577    -0.24200
H1672       H  0.08488516  0.90841716  0.98171751     0.14800
H1673       H  0.14720515  0.83932230  0.89190549     0.14800
C1674       C  0.15262852  0.83372524  0.99113558    -0.24200
H1675       H  0.06860715  0.92852604  0.90788951     0.05000
H1676       H  0.06440978  0.90288256  0.85872700     0.08200
H1677       H  0.09429095  0.92703869  0.85783438     0.08200
H1678       H  0.13943151  0.82006604  0.01564518     0.08200
H1679       H  0.16865309  0.84511520  0.01371853     0.08200
H1680       H  0.16441127  0.81954691  0.96468580     0.05000
C1681       C  0.13569852  0.85293067  0.41342765    -0.20800
C1682       C  0.11503794  0.86684488  0.38426655    -0.07400
C1683       C  0.09357133  0.88331812  0.40799005     0.13500
C1684       C  0.09319885  0.88521656  0.46024631    -0.20900
C1685       C  0.11363191  0.87104884  0.48976231    -0.07400
C1686       C  0.13538314  0.85475809  0.46574075     0.13500
C1687       C  0.15801062  0.83868743  0.49433211    -0.24200
H1688       H  0.15242605  0.84065817  0.39494090     0.14800
H1689       H  0.07657291  0.89782999  0.47822644     0.14800
C1690       C  0.07156519  0.89974292  0.37861072    -0.24200
H1691       H  0.17272989  0.82669823  0.46906725     0.05000
H1692       H  0.14791765  0.82306003  0.51978216     0.08200
H1693       H  0.17106659  0.85379164  0.51611561     0.08200
H1694       H  0.05818160  0.88480578  0.35711377     0.08200
H1695       H  0.08219758  0.91467592  0.35253036     0.08200
H1696       H  0.05717865  0.91244931  0.40336331     0.05000
C1697       C  0.23666081  0.67676395  0.98126695    -0.20800
C1698       C  0.21785882  0.67201091  0.94191555    -0.07400
C1699       C  0.22881221  0.67149245  0.89219549     0.13500
C1700       C  0.25840548  0.67042722  0.88387317    -0.20900
C1701       C  0.27727044  0.67142210  0.92396875    -0.07400
C1702       C  0.26626115  0.67701770  0.97267205     0.13500
C1703       C  0.28539153  0.68195806  0.01673683    -0.24200
H1704       H  0.22849610  0.67804095  0.01924106     0.14800
H1705       H  0.26662381  0.66685382  0.84635741     0.14800
C1706       C  0.20970419  0.67099295  0.84723847    -0.24200
H1707       H  0.27937764  0.70241396  0.03505787     0.05000
H1708       H  0.30812071  0.68344666  0.00565285     0.08200
H1709       H  0.28296091  0.66442226  0.04415599     0.08200
H1710       H  0.18711704  0.67513757  0.85739489     0.08200
H1711       H  0.21169235  0.65010216  0.82796191     0.08200
H1712       H  0.21604718  0.68806505  0.82088154     0.05000
C1713       C  0.99365920  0.61885880  0.89037525    -0.20800
C1714       C  0.00638777  0.64565037  0.89408144    -0.07400
C1715       C  0.98954123  0.67034795  0.88666525     0.13500
C1716       C  0.96033270  0.66766935  0.87750600    -0.20900
C1717       C  0.94683659  0.64098519  0.87714244    -0.07400
C1718       C  0.96410292  0.61610267  0.88283085     0.13500
C1719       C  0.95182852  0.58658470  0.88274631    -0.24200
H1720       H  0.00671368  0.59997372  0.89609214     0.14800
H1721       H  0.94781443  0.68694026  0.87235385     0.14800
C1722       C  0.00219664  0.69973077  0.88819648    -0.24200
H1723       H  0.96856964  0.56991423  0.88736531     0.05000
H1724       H  0.94105499  0.58249908  0.84666724     0.08200
H1725       H  0.93649053  0.58431599  0.91424067     0.08200
H1726       H  0.02022708  0.70099397  0.86123005     0.08200
H1727       H  0.00978664  0.70463882  0.92639085     0.08200
H1728       H  0.98634968  0.71646222  0.87814921     0.05000
C1729       C  0.12237857  0.74412710  0.04863424    -0.20800
C1730       C  0.09745933  0.73568364  0.02427721    -0.07400
C1731       C  0.07279003  0.75307625  0.02895195     0.13500
C1732       C  0.07345418  0.77760713  0.05907583    -0.20900
C1733       C  0.09810203  0.78576790  0.08520926    -0.07400
C1734       C  0.12302689  0.76850775  0.07950686     0.13500
C1735       C  0.15054714  0.77529488  0.10534623    -0.24200
H1736       H  0.14133889  0.73093078  0.04482395     0.14800
H1737       H  0.05431255  0.79063042  0.06179492     0.14800
C1738       C  0.04584388  0.74650018  0.00092642    -0.24200
H1739       H  0.16735692  0.75902867  0.09749220     0.05000
H1740       H  0.14713618  0.77590981  0.14645741     0.08200
H1741       H  0.15865108  0.79601776  0.09198276     0.08200
H1742       H  0.03610570  0.72671259  0.01523479     0.08200
H1743       H  0.05071716  0.74410641  0.96043207     0.08200
H1744       H  0.02963741  0.76376829  0.00514952     0.05000
C1745       C  0.22829157  0.65835613  0.39671616    -0.20800
C1746       C  0.21818203  0.66085443  0.44640211    -0.07400
C1747       C  0.23756748  0.66711459  0.48464957     0.13500
C1748       C  0.26685049  0.66756296  0.47313749    -0.20900
C1749       C  0.27707376  0.66180831  0.42439659    -0.07400
C1750       C  0.25753324  0.65858771  0.38532344     0.13500
C1751       C  0.26754595  0.65302556  0.33255212    -0.24200
H1752       H  0.21331067  0.65410935  0.36703661     0.14800
H1753       H  0.28203184  0.67010185  0.50313557     0.14800
C1754       C  0.22773194  0.67089247  0.53796922    -0.24200
H1755       H  0.24941266  0.65061718  0.30650381     0.05000
H1756       H  0.28054174  0.63313996  0.33112142     0.08200
H1757       H  0.28064499  0.67110080  0.31944237     0.08200
H1758       H  0.21707095  0.65126981  0.55105671     0.08200
H1759       H  0.21253529  0.68913029  0.54054595     0.08200
H1760       H  0.24580603  0.67520165  0.56334627     0.05000
C1761       C  0.99173514  0.66828159  0.37658828    -0.20800
C1762       C  0.00598949  0.64438211  0.39568189    -0.07400
C1763       C  0.99060856  0.61936875  0.40558583     0.13500
C1764       C  0.96112207  0.61900245  0.39734216    -0.20900
C1765       C  0.94646259  0.64324040  0.38009449    -0.07400
C1766       C  0.96221004  0.66805622  0.36826282     0.13500
C1767       C  0.94834596  0.69430026  0.34630502    -0.24200
H1768       H  0.00373230  0.68740840  0.36906338     0.14800
H1769       H  0.94927678  0.60000994  0.40645840     0.14800
C1770       C  0.00508001  0.59342570  0.42691901    -0.24200
H1771       H  0.96434212  0.71043639  0.33542547     0.05000
H1772       H  0.93381538  0.70450563  0.37405750     0.08200
H1773       H  0.93631295  0.68849663  0.31225118     0.08200
H1774       H  0.01548104  0.59886965  0.46279600     0.08200
H1775       H  0.02128845  0.58551578  0.39989331     0.08200
H1776       H  0.98981806  0.57598867  0.43409862     0.05000
C1777       C  0.13727651  0.65131128  0.70995870    -0.20800
C1778       C  0.11511727  0.64010812  0.73915669    -0.07400
C1779       C  0.09187327  0.62720873  0.71532319     0.13500
C1780       C  0.09089297  0.62694460  0.66288065    -0.20900
C1781       C  0.11258067  0.63916185  0.63336961    -0.07400
C1782       C  0.13644516  0.65106703  0.65762045     0.13500
C1783       C  0.16089031  0.66430710  0.62942225    -0.24200
H1784       H  0.15536266  0.66074710  0.72844272     0.14800
H1785       H  0.07276705  0.61733974  0.64485763     0.14800
C1786       C  0.06854815  0.61293365  0.74472505    -0.24200
H1787       H  0.17731445  0.67280046  0.65494781     0.05000
H1788       H  0.15301646  0.68233643  0.60638884     0.08200
H1789       H  0.17150536  0.64806148  0.60529592     0.08200
H1790       H  0.05689185  0.62884261  0.76805248     0.08200
H1791       H  0.07787097  0.59618569  0.76907547     0.08200
H1792       H  0.05281571  0.60267937  0.71987238     0.05000
C1793       C  0.09399444  0.63140674  0.16158761    -0.20800
C1794       C  0.11365830  0.64698712  0.13274732    -0.07400
C1795       C  0.13466231  0.66296767  0.15779595     0.13500
C1796       C  0.13505493  0.66312545  0.21026168    -0.20900
C1797       C  0.11505102  0.64798561  0.23873251    -0.07400
C1798       C  0.09436035  0.63172312  0.21399171     0.13500
C1799       C  0.07327367  0.61380133  0.24236014    -0.24200
H1800       H  0.07797834  0.61886219  0.14300827     0.14800
H1801       H  0.15120994  0.67524012  0.22939772     0.14800
C1802       C  0.15629603  0.68056282  0.13020865    -0.24200
H1803       H  0.05946213  0.60150103  0.21684697     0.05000
H1804       H  0.05919617  0.62762578  0.26572557     0.08200
H1805       H  0.08480324  0.59838684  0.26652792     0.08200
H1806       H  0.17048317  0.69214037  0.15613284     0.08200
H1807       H  0.14518455  0.69664291  0.10702352     0.08200
H1808       H  0.16997544  0.66664748  0.10628459     0.05000
C1809       C  0.12413883  0.74087864  0.55766913    -0.20800
C1810       C  0.09950197  0.73236280  0.53213594    -0.07400
C1811       C  0.07498209  0.75013896  0.53522896     0.13500
C1812       C  0.07545569  0.77496244  0.56450607    -0.20900
C1813       C  0.09981782  0.78359539  0.59095175    -0.07400
C1814       C  0.12472882  0.76614321  0.58675283     0.13500
C1815       C  0.15206174  0.77366869  0.61251860    -0.24200
H1816       H  0.14289591  0.72724244  0.55597410     0.14800
H1817       H  0.05627478  0.78796872  0.56598129     0.14800
C1818       C  0.04816502  0.74368147  0.50665980    -0.24200
H1819       H  0.16893054  0.75725154  0.60619585     0.05000
H1820       H  0.14835768  0.77539093  0.65346296     0.08200
H1821       H  0.16019911  0.79409617  0.59775847     0.08200
H1822       H  0.03750843  0.72474052  0.52243976     0.08200
H1823       H  0.05341895  0.74000797  0.46659812     0.08200
H1824       H  0.03249181  0.76154819  0.50868356     0.05000
C1825       C  0.15275599  0.27895900  0.84845748    -0.20800
C1826       C  0.15205099  0.28781228  0.79814757    -0.07400
C1827       C  0.15511638  0.26740612  0.75990332     0.13500
C1828       C  0.15543359  0.23840098  0.77281254    -0.20900
C1829       C  0.15238075  0.22957160  0.82294619    -0.07400
C1830       C  0.15248404  0.25002354  0.86131811     0.13500
C1831       C  0.14944175  0.24148488  0.91532065    -0.24200
H1832       H  0.15075507  0.29479347  0.87785383     0.14800
H1833       H  0.15545519  0.22250767  0.74334929     0.14800
C1834       C  0.15553731  0.27606049  0.70572063    -0.24200
H1835       H  0.14939071  0.26026868  0.94061331     0.05000
H1836       H  0.16749104  0.22730676  0.92586451     0.08200
H1837       H  0.12911627  0.23004158  0.92105372     0.08200
H1838       H  0.17387983  0.29024139  0.69861414     0.08200
H1839       H  0.13548209  0.28754820  0.69634626     0.08200
H1840       H  0.15764393  0.25731717  0.68052159     0.05000
C1841       C  0.14340211  0.50819592  0.89964122    -0.20800
C1842       C  0.12349349  0.49705203  0.86633341    -0.07400
C1843       C  0.10308060  0.51536980  0.84458281     0.13500
C1844       C  0.10338668  0.54460179  0.85577286    -0.20900
C1845       C  0.12438466  0.55622401  0.88670746    -0.07400
C1846       C  0.14427259  0.53758142  0.90993719     0.13500
C1847       C  0.16652919  0.54837306  0.94541235    -0.24200
H1848       H  0.15916940  0.49399630  0.91585709     0.14800
H1849       H  0.08820309  0.55868845  0.83772079     0.14800
C1850       C  0.08188013  0.50423606  0.80755004    -0.24200
H1851       H  0.17866116  0.53061656  0.96292438     0.05000
H1852       H  0.15616371  0.56097511  0.97578701     0.08200
H1853       H  0.18211977  0.56174874  0.92517558     0.08200
H1854       H  0.06861868  0.48767349  0.82552821     0.08200
H1855       H  0.09329349  0.49479386  0.77487989     0.08200
H1856       H  0.06751130  0.52138223  0.79367107     0.05000
C1857       C  0.15952488  0.27594406  0.35054905    -0.20800
C1858       C  0.15628723  0.28539942  0.30084803    -0.07400
C1859       C  0.15696098  0.26534362  0.26178506     0.13500
C1860       C  0.15710173  0.23621186  0.27370796    -0.20900
C1861       C  0.15647015  0.22681952  0.32377403    -0.07400
C1862       C  0.15970375  0.24679014  0.36247149     0.13500
C1863       C  0.16085877  0.23753234  0.41628508    -0.24200
H1864       H  0.15934371  0.29149495  0.38057105     0.14800
H1865       H  0.15513961  0.22071293  0.24387005     0.14800
C1866       C  0.15496153  0.27458675  0.20804028    -0.24200
H1867       H  0.16308516  0.25596574  0.44197315     0.05000
H1868       H  0.17943539  0.22305060  0.42174271     0.08200
H1869       H  0.14104640  0.22619159  0.42652439     0.08200
H1870       H  0.17321238  0.28847373  0.19869058     0.08200
H1871       H  0.13475921  0.28656655  0.20198935     0.08200
H1872       H  0.15547775  0.25609798  0.18208527     0.05000
C1873       C  0.10083303  0.51048879  0.36262676    -0.20800
C1874       C  0.12717178  0.49630238  0.35791481    -0.07400
C1875       C  0.15245513  0.51175660  0.36498842     0.13500
C1876       C  0.15081978  0.54111208  0.37409830    -0.20900
C1877       C  0.12461223  0.55603945  0.37547324    -0.07400
C1878       C  0.09915132  0.54014112  0.37101145     0.13500
C1879       C  0.07015434  0.55402001  0.37382070    -0.24200
H1880       H  0.08148329  0.49850852  0.35738021     0.14800
H1881       H  0.17050234  0.55257377  0.37893658     0.14800
C1882       C  0.18138707  0.49741851  0.36333453    -0.24200
H1883       H  0.05282273  0.53835688  0.36919019     0.05000
H1884       H  0.06788506  0.57012900  0.34376245     0.08200
H1885       H  0.06726534  0.56421932  0.41100502     0.08200
H1886       H  0.18609630  0.48927954  0.32518102     0.08200
H1887       H  0.18198734  0.47954100  0.39041703     0.08200
H1888       H  0.19864369  0.51234640  0.37322965     0.05000
C1889       C  0.14895261  0.40825185  0.53396162    -0.20800
C1890       C  0.13011435  0.38900076  0.51244109    -0.07400
C1891       C  0.11187483  0.37292050  0.54396646     0.13500
C1892       C  0.11300509  0.37665748  0.59603255    -0.20900
C1893       C  0.13189294  0.39588081  0.61751500    -0.07400
C1894       C  0.15059359  0.41143675  0.58605261     0.13500
C1895       C  0.17356522  0.43053078  0.60573990    -0.24200
H1896       H  0.16332598  0.42007263  0.51005501     0.14800
H1897       H  0.09885288  0.36472214  0.62014946     0.14800
C1898       C  0.09048542  0.35237889  0.52307459    -0.24200
H1899       H  0.16971760  0.45266822  0.59278470     0.05000
H1900       H  0.19462584  0.42306739  0.59137858     0.08200
H1901       H  0.17487661  0.43070282  0.64687468     0.08200
H1902       H  0.10155777  0.33413069  0.50473511     0.08200
H1903       H  0.07661202  0.36344005  0.49563468     0.08200
H1904       H  0.07658162  0.34351106  0.55284971     0.05000
C1905       C  0.10882968  0.40139793  0.03372353    -0.20800
C1906       C  0.13085389  0.38495190  0.01237145    -0.07400
C1907       C  0.14961845  0.36961205  0.04383187     0.13500
C1908       C  0.14639795  0.37191521  0.09587365    -0.20900
C1909       C  0.12474960  0.38888608  0.11741733    -0.07400
C1910       C  0.10531953  0.40340517  0.08577479     0.13500
C1911       C  0.08028176  0.42027466  0.10622884    -0.24200
H1912       H  0.09385383  0.41223311  0.00939605     0.14800
H1913       H  0.16151698  0.36108931  0.11992056     0.14800
C1914       C  0.17367938  0.35156323  0.02292721    -0.24200
H1915       H  0.06590086  0.42765166  0.07597422     0.05000
H1916       H  0.08764638  0.43950337  0.12618948     0.08200
H1917       H  0.06766204  0.40679237  0.13203604     0.08200
H1918       H  0.18729235  0.36463607  0.99805563     0.08200
H1919       H  0.16513027  0.33332431  0.00160151     0.08200
H1920       H  0.18733515  0.34268793  0.05299524     0.05000
C1921       C  0.32931075  0.27885275  0.52881556    -0.20800
C1922       C  0.33108308  0.28718874  0.57942682    -0.07400
C1923       C  0.32947106  0.26619630  0.61675411     0.13500
C1924       C  0.32953197  0.23730464  0.60253328    -0.20900
C1925       C  0.33150055  0.22894807  0.55187579    -0.07400
C1926       C  0.32968030  0.24996199  0.51459184     0.13500
C1927       C  0.33072804  0.24203975  0.46003612    -0.24200
H1928       H  0.33031730  0.29505293  0.50004859     0.14800
H1929       H  0.33069096  0.22109441  0.63127868     0.14800
C1930       C  0.33026892  0.27412220  0.67129529    -0.24200
H1931       H  0.32944021  0.26112410  0.43565933     0.05000
H1932       H  0.31252698  0.22807858  0.45111102     0.08200
H1933       H  0.35096489  0.23054716  0.45133906     0.08200
H1934       H  0.31183686  0.28824173  0.68053448     0.08200
H1935       H  0.35031441  0.28544557  0.67963868     0.08200
H1936       H  0.32919480  0.25505321  0.69570320     0.05000
C1937       C  0.46012889  0.39849333  0.50269434    -0.20800
C1938       C  0.44505951  0.37272309  0.50648398    -0.07400
C1939       C  0.46076123  0.34669549  0.50125978     0.13500
C1940       C  0.49009533  0.34737655  0.49085309    -0.20900
C1941       C  0.50473608  0.37299542  0.48522311    -0.07400
C1942       C  0.48961805  0.39894230  0.49182753     0.13500
C1943       C  0.50409899  0.42710322  0.48468505    -0.24200
H1944       H  0.44863543  0.41852924  0.50642005     0.14800
H1945       H  0.50174373  0.32749448  0.48579941     0.14800
C1946       C  0.44725893  0.31776917  0.50582276    -0.24200
H1947       H  0.48899027  0.44528963  0.48951363     0.05000
H1948       H  0.51332936  0.42826811  0.44640212     0.08200
H1949       H  0.52130720  0.42947071  0.51256204     0.08200
H1950       H  0.43201064  0.31444031  0.47489775     0.08200
H1951       H  0.43630605  0.31587491  0.54258006     0.08200
H1952       H  0.46326247  0.30020884  0.50337042     0.05000
C1953       C  0.33887513  0.51220158  0.51580525    -0.20800
C1954       C  0.36395943  0.49730682  0.52712535    -0.07400
C1955       C  0.39019213  0.51170650  0.52587958     0.13500
C1956       C  0.39043014  0.54114910  0.51588788    -0.20900
C1957       C  0.36504147  0.55653153  0.50691859    -0.07400
C1958       C  0.33898761  0.54139502  0.50498500     0.13500
C1959       C  0.31108710  0.55540285  0.49084432    -0.24200
H1960       H  0.31887516  0.50087790  0.51618061     0.14800
H1961       H  0.41046805  0.55235223  0.51684834     0.14800
C1962       C  0.41772468  0.49637675  0.53739094    -0.24200
H1963       H  0.29384357  0.53961157  0.48651246     0.05000
H1964       H  0.31348510  0.56661557  0.45456676     0.08200
H1965       H  0.30400810  0.57057364  0.52035867     0.08200
H1966       H  0.42156133  0.47914494  0.50960397     0.08200
H1967       H  0.41662368  0.48701875  0.57544142     0.08200
H1968       H  0.43618110  0.51094105  0.53597471     0.05000
C1969       C  0.25620076  0.38464552  0.67443984    -0.20800
C1970       C  0.26972283  0.41075319  0.66544496    -0.07400
C1971       C  0.25646693  0.43598598  0.68449350     0.13500
C1972       C  0.23131882  0.43410977  0.71312842    -0.20900
C1973       C  0.21802706  0.40799016  0.72288244    -0.07400
C1974       C  0.23061910  0.38289281  0.70225590     0.13500
C1975       C  0.21698071  0.35415647  0.70765093    -0.24200
H1976       H  0.26599921  0.36520849  0.66033744     0.14800
H1977       H  0.22161644  0.45356734  0.72737656     0.14800
C1978       C  0.26790214  0.46532566  0.67408644    -0.24200
H1979       H  0.21555723  0.34827717  0.74775680     0.05000
H1980       H  0.19541045  0.35465439  0.69090295     0.08200
H1981       H  0.22946773  0.33715331  0.68826604     0.08200
H1982       H  0.27106834  0.46817645  0.63321949     0.08200
H1983       H  0.28822864  0.46852076  0.69408511     0.08200
H1984       H  0.25300110  0.48237533  0.68709062     0.05000
C1985       C  0.33758105  0.27863847  0.03015609    -0.20800
C1986       C  0.33940998  0.28671613  0.08094981    -0.07400
C1987       C  0.33736206  0.26559807  0.11794611     0.13500
C1988       C  0.33640920  0.23681932  0.10331134    -0.20900
C1989       C  0.33767474  0.22860362  0.05252302    -0.07400
C1990       C  0.33680284  0.24982482  0.01551957     0.13500
C1991       C  0.33734272  0.24208987  0.96085791    -0.24200
H1992       H  0.33888445  0.29491533  0.00158117     0.14800
H1993       H  0.33697020  0.22046636  0.13185041     0.14800
C1994       C  0.33855666  0.27319194  0.17258633    -0.24200
H1995       H  0.33683690  0.26129967  0.93671417     0.05000
H1996       H  0.31850181  0.22899854  0.95193225     0.08200
H1997       H  0.35703095  0.22974124  0.95185057     0.08200
H1998       H  0.32045664  0.28762952  0.18231211     0.08200
H1999       H  0.35888796  0.28403285  0.18081273     0.08200
H2000       H  0.33719251  0.25402266  0.19669633     0.05000
C2001       C  0.49181842  0.39860089  0.99764585    -0.20800
C2002       C  0.50476415  0.37199424  0.98842269    -0.07400
C2003       C  0.48832939  0.34713277  0.99311864     0.13500
C2004       C  0.45911962  0.34962213  0.00330825    -0.20900
C2005       C  0.44536755  0.37629177  0.00862182    -0.07400
C2006       C  0.46232717  0.40118204  0.00744843     0.13500
C2007       C  0.44974142  0.43057252  0.01482444    -0.24200
H2008       H  0.50461004  0.41760046  0.99472163     0.14800
H2009       H  0.44682116  0.33030248  0.00592131     0.14800
C2010       C  0.50141568  0.31774329  0.98805199    -0.24200
H2011       H  0.46621266  0.44730725  0.01238339     0.05000
H2012       H  0.43966662  0.43222099  0.05241883     0.08200
H2013       H  0.43371201  0.43507548  0.98548232     0.08200
H2014       H  0.51960550  0.31545882  0.01409750     0.08200
H2015       H  0.50880539  0.31397002  0.94912860     0.08200
H2016       H  0.48588289  0.30082699  0.99712087     0.05000
C2017       C  0.33720210  0.54351340  0.00137617    -0.20800
C2018       C  0.36426743  0.55579868  0.99499017    -0.07400
C2019       C  0.38858227  0.53749010  0.99583338     0.13500
C2020       C  0.38515763  0.50836900  0.00704040    -0.20900
C2021       C  0.35824949  0.49708707  0.01809780    -0.07400
C2022       C  0.33386512  0.51472272  0.01313067     0.13500
C2023       C  0.30406942  0.50344179  0.01965683    -0.24200
H2024       H  0.31819219  0.55670911  0.99897280     0.14800
H2025       H  0.40379040  0.49462218  0.00971496     0.14800
C2026       C  0.41822709  0.54825164  0.98640129    -0.24200
H2027       H  0.28761747  0.51963897  0.00989080     0.05000
H2028       H  0.30019708  0.49733536  0.05912690     0.08200
H2029       H  0.30105961  0.48474103  0.99487577     0.08200
H2030       H  0.42392482  0.56382493  0.01579608     0.08200
H2031       H  0.41941104  0.55837716  0.94897110     0.08200
H2032       H  0.43436999  0.53078585  0.98722398     0.05000
C2033       C  0.37603996  0.40633654  0.79677400    -0.20800
C2034       C  0.35727338  0.39008988  0.76788133    -0.07400
C2035       C  0.33685125  0.37295847  0.79241768     0.13500
C2036       C  0.33611907  0.37232288  0.84484340    -0.20900
C2037       C  0.35477475  0.38872439  0.87345462    -0.07400
C2038       C  0.37505048  0.40592668  0.84913764     0.13500
C2039       C  0.39636921  0.42310356  0.87802260    -0.24200
H2040       H  0.39155296  0.41964254  0.77817625     0.14800
H2041       H  0.32079328  0.35894410  0.86378807     0.14800
C2042       C  0.31502673  0.35616905  0.76406931    -0.24200
H2043       H  0.41140894  0.43432284  0.85282883     0.05000
H2044       H  0.40905737  0.40886825  0.90263940     0.08200
H2045       H  0.38515630  0.43947571  0.90104422     0.08200
H2046       H  0.30234800  0.37069827  0.74007565     0.08200
H2047       H  0.29998947  0.34516005  0.78957144     0.08200
H2048       H  0.32574645  0.33964509  0.74068284     0.05000
C2049       C  0.37093106  0.41118385  0.35123787    -0.20800
C2050       C  0.35365435  0.39042824  0.37308609    -0.07400
C2051       C  0.33740266  0.37247243  0.34180717     0.13500
C2052       C  0.33967565  0.37515494  0.28975077    -0.20900
C2053       C  0.35717810  0.39565655  0.26778660    -0.07400
C2054       C  0.37281767  0.41419929  0.29906477     0.13500
C2055       C  0.39215662  0.43672567  0.27806874    -0.24200
H2056       H  0.38353342  0.42471845  0.37513778     0.14800
H2057       H  0.32698037  0.36164466  0.26595466     0.14800
C2058       C  0.31668894  0.35114177  0.36272532    -0.24200
H2059       H  0.40445750  0.44741496  0.30789917     0.05000
H2060       H  0.37947855  0.45348074  0.25896946     0.08200
H2061       H  0.40761407  0.42691752  0.25136198     0.08200
H2062       H  0.30177958  0.36189375  0.38928984     0.08200
H2063       H  0.32821885  0.33362209  0.38191445     0.08200
H2064       H  0.30376314  0.34126967  0.33284213     0.05000
C2065       C  0.26220184  0.38499186  0.19651407    -0.20800
C2066       C  0.26721153  0.40448114  0.15770230    -0.07400
C2067       C  0.24554148  0.42419867  0.14521419     0.13500
C2068       C  0.21972943  0.42423517  0.17226617    -0.20900
C2069       C  0.21476272  0.40532148  0.21240495    -0.07400
C2070       C  0.23645091  0.38511044  0.22405310     0.13500
C2071       C  0.23323245  0.36401185  0.26604420    -0.24200
H2072       H  0.27909657  0.37022260  0.20669840     0.14800
H2073       H  0.20322192  0.43927837  0.16154804     0.14800
C2074       C  0.24932662  0.44491816  0.10272696    -0.24200
H2075       H  0.25295418  0.35113397  0.27151475     0.05000
H2076       H  0.21585687  0.34898596  0.25753016     0.08200
H2077       H  0.22854685  0.37542587  0.30160980     0.08200
H2078       H  0.25470522  0.43312667  0.06782740     0.08200
H2079       H  0.26658357  0.46005255  0.11127539     0.08200
H2080       H  0.22963423  0.45762130  0.09597404     0.05000
C2081       C  0.76194179  0.16811885  0.72792410    -0.20800
C2082       C  0.77108611  0.16529155  0.67773262    -0.07400
C2083       C  0.75077571  0.16670401  0.63941972     0.13500
C2084       C  0.72169435  0.16699941  0.65238168    -0.20900
C2085       C  0.71261780  0.16609330  0.70273323    -0.07400
C2086       C  0.73285916  0.16862527  0.74086154     0.13500
C2087       C  0.72389452  0.16948716  0.79502838    -0.24200
H2088       H  0.77765643  0.16755445  0.75742222     0.14800
H2089       H  0.70595575  0.16560244  0.62303594     0.14800
C2090       C  0.75964933  0.16553808  0.58526001    -0.24200
H2091       H  0.74251004  0.17116607  0.82020349     0.05000
H2092       H  0.71222282  0.14982345  0.80482561     0.08200
H2093       H  0.70977247  0.18825693  0.80172630     0.08200
H2094       H  0.77146719  0.14539257  0.57744530     0.08200
H2095       H  0.77358335  0.18384994  0.57662687     0.08200
H2096       H  0.74097911  0.16659863  0.56003439     0.05000
C2097       C  0.83343199  0.01090447  0.76838783    -0.20800
C2098       C  0.85922996  0.99586753  0.77244719    -0.07400
C2099       C  0.88500294  0.01037689  0.76375837     0.13500
C2100       C  0.88432702  0.03989827  0.75459541    -0.20900
C2101       C  0.85848981  0.05542312  0.75326658    -0.07400
C2102       C  0.83252648  0.04020889  0.75846470     0.13500
C2103       C  0.80350758  0.05416539  0.75386699    -0.24200
H2104       H  0.81365988  0.99961274  0.77412238     0.14800
H2105       H  0.90426249  0.05099948  0.74982009     0.14800
C2106       C  0.91331234  0.99513620  0.76584076    -0.24200
H2107       H  0.78608112  0.03838346  0.75526267     0.05000
H2108       H  0.80188796  0.06542966  0.71751405     0.08200
H2109       H  0.79970588  0.06921874  0.78529922     0.08200
H2110       H  0.91437015  0.97892817  0.73568138     0.08200
H2111       H  0.91596790  0.98473856  0.80278839     0.08200
H2112       H  0.93136083  0.00989297  0.76017941     0.05000
C2113       C  0.99572633  0.16581489  0.74111005    -0.20800
C2114       C  0.98170479  0.13978792  0.73720386    -0.07400
C2115       C  0.99710934  0.11431775  0.74613254     0.13500
C2116       C  0.02665510  0.11552598  0.75500000    -0.20900
C2117       C  0.04131380  0.14159590  0.75514911    -0.07400
C2118       C  0.02504815  0.16725613  0.75021907     0.13500
C2119       C  0.03791489  0.19651905  0.75361603    -0.24200
H2120       H  0.98365317  0.18534037  0.73529493     0.14800
H2121       H  0.03849932  0.09580240  0.75979958     0.14800
C2122       C  0.98286316  0.08579034  0.74360385    -0.24200
H2123       H  0.02145042  0.21367481  0.75229704     0.05000
H2124       H  0.05257912  0.20010418  0.72157721     0.08200
H2125       H  0.04938070  0.19881819  0.78953837     0.08200
H2126       H  0.97337277  0.08274026  0.70609449     0.08200
H2127       H  0.96588515  0.08461853  0.77261393     0.08200
H2128       H  0.99817394  0.06801430  0.75020789     0.05000
C2129       C  0.72408282  0.15754707  0.15021368    -0.20800
C2130       C  0.71418540  0.15784969  0.20022312    -0.07400
C2131       C  0.73369680  0.16252905  0.23896041     0.13500
C2132       C  0.76290238  0.16369433  0.22717753    -0.20900
C2133       C  0.77293749  0.16028297  0.17766182    -0.07400
C2134       C  0.75325201  0.15863689  0.13849774     0.13500
C2135       C  0.76304294  0.15584957  0.08494062    -0.24200
H2136       H  0.70899792  0.15456525  0.12020926     0.14800
H2137       H  0.77819949  0.16511466  0.25723497     0.14800
C2138       C  0.72408732  0.16401247  0.29273959    -0.24200
H2139       H  0.74479496  0.15432566  0.05891190     0.05000
H2140       H  0.77646691  0.13639481  0.08029927     0.08200
H2141       H  0.77565740  0.17478594  0.07438355     0.08200
H2142       H  0.71344606  0.14390161  0.30337032     0.08200
H2143       H  0.70892717  0.18211569  0.29787496     0.08200
H2144       H  0.74227261  0.16721923  0.31839347     0.05000
C2145       C  0.83970803  0.04281469  0.25600524    -0.20800
C2146       C  0.86593558  0.05702427  0.25731112    -0.07400
C2147       C  0.89106243  0.04109408  0.26788819     0.13500
C2148       C  0.88902808  0.01182985  0.27798143    -0.20900
C2149       C  0.86259798  0.99832424  0.27925304    -0.07400
C2150       C  0.83769251  0.01381570  0.26727316     0.13500
C2151       C  0.80896834  0.99978389  0.26583255    -0.24200
H2152       H  0.82042454  0.05461018  0.24715928     0.14800
H2153       H  0.90801400  0.99967672  0.28740733     0.14800
C2154       C  0.91983543  0.05478449  0.27147051    -0.24200
H2155       H  0.79199202  0.01476587  0.25335953     0.05000
H2156       H  0.80293840  0.99209575  0.30360018     0.08200
H2157       H  0.80970310  0.98155219  0.23934657     0.08200
H2158       H  0.91910074  0.07187447  0.30021419     0.08200
H2159       H  0.92607493  0.06375241  0.23468376     0.08200
H2160       H  0.93668384  0.03926414  0.28242401     0.05000
C2161       C  0.00641595  0.15002050  0.19132015    -0.20800
C2162       C  0.98701647  0.13833723  0.22573189    -0.07400
C2163       C  0.99790102  0.12453893  0.26894134     0.13500
C2164       C  0.02759247  0.12377242  0.27697207    -0.20900
C2165       C  0.04648362  0.13678724  0.24345186    -0.07400
C2166       C  0.03573988  0.14964519  0.19965244     0.13500
C2167       C  0.05510421  0.16269213  0.16079267    -0.24200
H2168       H  0.99862596  0.15994775  0.15744978     0.14800
H2169       H  0.03605930  0.11368000  0.31020011     0.14800
C2170       C  0.97864869  0.11108555  0.30719105    -0.24200
H2171       H  0.04315235  0.17009437  0.12747597     0.05000
H2172       H  0.07113440  0.14671736  0.14796822     0.08200
H2173       H  0.06605469  0.18144041  0.17654714     0.08200
H2174       H  0.96681530  0.09346067  0.28962568     0.08200
H2175       H  0.96347931  0.12723049  0.32253153     0.08200
H2176       H  0.99083585  0.10202059  0.33896794     0.05000
C2177       C  0.90014106  0.13054908  0.96132564    -0.20800
C2178       C  0.87873486  0.14267827  0.99208322    -0.07400
C2179       C  0.85553366  0.15705953  0.96933269     0.13500
C2180       C  0.85448028  0.15875404  0.91706482    -0.20900
C2181       C  0.87570854  0.14637109  0.88634673    -0.07400
C2182       C  0.89901021  0.13213839  0.90900956     0.13500
C2183       C  0.92241902  0.11780245  0.87884952    -0.24200
H2184       H  0.91807330  0.11967315  0.97838716     0.14800
H2185       H  0.83662039  0.16973295  0.89995859     0.14800
C2186       C  0.83198376  0.17125657  0.99930310    -0.24200
H2187       H  0.93829762  0.10698213  0.90308051     0.05000
H2188       H  0.93400430  0.13384260  0.85634330     0.08200
H2189       H  0.91326304  0.10142293  0.85386066     0.08200
H2190       H  0.84098141  0.18758670  0.02455216     0.08200
H2191       H  0.82037591  0.15507387  0.02141791     0.08200
H2192       H  0.81615587  0.18210651  0.97501113     0.05000
C2193       C  0.86360163  0.16224848  0.47072570    -0.20800
C2194       C  0.87901711  0.13954669  0.49165263    -0.07400
C2195       C  0.89474499  0.12086611  0.45984894     0.13500
C2196       C  0.89428165  0.12527920  0.40798034    -0.20900
C2197       C  0.87856567  0.14779804  0.38716483    -0.07400
C2198       C  0.86330200  0.16674509  0.41896857     0.13500
C2199       C  0.84745358  0.19231887  0.39876049    -0.24200
H2200       H  0.85251192  0.17718109  0.49519560     0.14800
H2201       H  0.90539415  0.11043722  0.38336135     0.14800
C2202       C  0.91123780  0.09567603  0.47998166    -0.24200
H2203       H  0.83875756  0.20602014  0.42928893     0.05000
H2204       H  0.82922568  0.18557004  0.37564017     0.08200
H2205       H  0.86212403  0.20539578  0.37583466     0.08200
H2206       H  0.89701894  0.08234494  0.50332410     0.08200
H2207       H  0.92950807  0.10289005  0.50255853     0.08200
H2208       H  0.92005063  0.08208628  0.44940907     0.05000
C2209       C  0.76470984  0.35208592  0.90097593    -0.20800
C2210       C  0.77192718  0.35096389  0.95207433    -0.07400
C2211       C  0.75048654  0.34533919  0.98759072     0.13500
C2212       C  0.72192065  0.34510475  0.97195577    -0.20900
C2213       C  0.71454349  0.35031836  0.92171491    -0.07400
C2214       C  0.73621446  0.35192952  0.88540854     0.13500
C2215       C  0.72922824  0.35601746  0.83101738    -0.24200
H2216       H  0.78132788  0.35557524  0.87339503     0.14800
H2217       H  0.70511240  0.34346906  0.99978716     0.14800
C2218       C  0.75743133  0.34200935  0.04213310    -0.24200
H2219       H  0.74877477  0.35717254  0.80749694     0.05000
H2220       H  0.71686300  0.37608365  0.82596210     0.08200
H2221       H  0.71639817  0.33784103  0.81769798     0.08200
H2222       H  0.76755107  0.36164545  0.05634239     0.08200
H2223       H  0.77230810  0.32369311  0.04703730     0.08200
H2224       H  0.73803453  0.33802201  0.06497427     0.05000
C2225       C  0.83795774  0.47436004  0.88873660    -0.20800
C2226       C  0.86419074  0.45946064  0.88895834    -0.07400
C2227       C  0.88968093  0.47542379  0.88475730     0.13500
C2228       C  0.88791340  0.50501904  0.87598586    -0.20900
C2229       C  0.86151370  0.51903090  0.87123428    -0.07400
C2230       C  0.83629900  0.50371870  0.87999170     0.13500
C2231       C  0.80748117  0.51829644  0.88073780    -0.24200
H2232       H  0.81829902  0.46288394  0.89419835     0.14800
H2233       H  0.90723353  0.51703735  0.87024007     0.14800
C2234       C  0.91879310  0.46168659  0.88791116    -0.24200
H2235       H  0.79025656  0.50342935  0.89141385     0.05000
H2236       H  0.80229814  0.52683492  0.84323396     0.08200
H2237       H  0.80744906  0.53595206  0.90841134     0.08200
H2238       H  0.92164656  0.44578425  0.85748451     0.08200
H2239       H  0.92137749  0.45123297  0.92482947     0.08200
H2240       H  0.93604818  0.47752255  0.88399093     0.05000
C2241       C  0.99567620  0.39697395  0.90001564    -0.20800
C2242       C  0.98300872  0.37022368  0.90530062    -0.07400
C2243       C  0.99976160  0.34543341  0.89769059     0.13500
C2244       C  0.02867189  0.34802747  0.88515888    -0.20900
C2245       C  0.04198289  0.37474977  0.88166778    -0.07400
C2246       C  0.02499589  0.39964866  0.88942551     0.13500
C2247       C  0.03747786  0.42906856  0.88884222    -0.24200
H2248       H  0.98275109  0.41592391  0.90645802     0.14800
H2249       H  0.04110352  0.32872905  0.87920401     0.14800
C2250       C  0.98726633  0.31608233  0.90215608    -0.24200
H2251       H  0.02115746  0.44575621  0.89714344     0.05000
H2252       H  0.04657542  0.43368654  0.85135120     0.08200
H2253       H  0.05426866  0.43067794  0.91771653     0.08200
H2254       H  0.96886685  0.31410358  0.87659214     0.08200
H2255       H  0.98021876  0.31214962  0.94119169     0.08200
H2256       H  0.00303987  0.29915992  0.89220604     0.05000
C2257       C  0.91529074  0.27331360  0.06347795    -0.20800
C2258       C  0.88938559  0.28450842  0.04546825    -0.07400
C2259       C  0.86403971  0.26939718  0.05649525     0.13500
C2260       C  0.86569750  0.24331938  0.08280743    -0.20900
C2261       C  0.89184370  0.23205356  0.09980935    -0.07400
C2262       C  0.91687984  0.24801259  0.09104380     0.13500
C2263       C  0.94559533  0.23925480  0.11150534    -0.24200
H2264       H  0.93485551  0.28469548  0.05651844     0.14800
H2265       H  0.84640693  0.23139019  0.08930400     0.14800
C2266       C  0.83509565  0.28067847  0.04195146    -0.24200
H2267       H  0.96163920  0.25624827  0.10673905     0.05000
H2268       H  0.95404012  0.22023545  0.09146038     0.08200
H2269       H  0.94373722  0.23484663  0.15217295     0.08200
H2270       H  0.83378325  0.28261169  0.00067859     0.08200
H2271       H  0.83123018  0.30177526  0.05969781     0.08200
H2272       H  0.81777155  0.26636198  0.05437759     0.05000
C2273       C  0.76631225  0.34764817  0.40217427    -0.20800
C2274       C  0.77359568  0.34649459  0.45323373    -0.07400
C2275       C  0.75225000  0.34062351  0.48877175     0.13500
C2276       C  0.72369861  0.33970271  0.47320732    -0.20900
C2277       C  0.71610484  0.34472260  0.42303860    -0.07400
C2278       C  0.73775596  0.34702769  0.38669133     0.13500
C2279       C  0.73065442  0.35135778  0.33240653    -0.24200
H2280       H  0.78286291  0.35157493  0.37464948     0.14800
H2281       H  0.70697086  0.33781356  0.50113134     0.14800
C2282       C  0.75924981  0.33789628  0.54339702    -0.24200
H2283       H  0.75016032  0.35294236  0.30885852     0.05000
H2284       H  0.71800278  0.37128316  0.32780845     0.08200
H2285       H  0.71806974  0.33309138  0.31874525     0.08200
H2286       H  0.76901646  0.35784066  0.55706491     0.08200
H2287       H  0.77446163  0.31990693  0.54879390     0.08200
H2288       H  0.73993297  0.33378431  0.56636745     0.05000
C2289       C  0.88896533  0.47305060  0.37791782    -0.20800
C2290       C  0.86383296  0.46013666  0.39540017    -0.07400
C2291       C  0.83995859  0.47788814  0.40716236     0.13500
C2292       C  0.84091191  0.50709683  0.39618185    -0.20900
C2293       C  0.86521638  0.51941780  0.37525665    -0.07400
C2294       C  0.88993622  0.50248792  0.36791278     0.13500
C2295       C  0.91684702  0.51519422  0.34719850    -0.24200
H2296       H  0.90754350  0.45990221  0.36970200     0.14800
H2297       H  0.82217583  0.52035714  0.40259415     0.14800
C2298       C  0.81332345  0.46654279  0.43152353    -0.24200
H2299       H  0.93410308  0.49896524  0.34303646     0.05000
H2300       H  0.92442941  0.53206485  0.37283380     0.08200
H2301       H  0.91269535  0.52460537  0.30986687     0.08200
H2302       H  0.81898180  0.45442008  0.46572135     0.08200
H2303       H  0.80168345  0.45272694  0.40515371     0.08200
H2304       H  0.79844150  0.48398409  0.44285734     0.05000
C2305       C  0.99882326  0.34569900  0.39454838    -0.20800
C2306       C  0.98285506  0.37101334  0.39508421    -0.07400
C2307       C  0.99627156  0.39663956  0.38095407     0.13500
C2308       C  0.02591173  0.39657708  0.37172505    -0.20900
C2309       C  0.04246665  0.37142010  0.37494937    -0.07400
C2310       C  0.02808548  0.34527457  0.38394441     0.13500
C2311       C  0.04282592  0.31648460  0.38316226    -0.24200
H2312       H  0.98827906  0.32592232  0.40355822     0.14800
H2313       H  0.03625645  0.41650059  0.36318630     0.14800
C2314       C  0.97978246  0.42425688  0.37734768    -0.24200
H2315       H  0.02757549  0.29875790  0.38772949     0.05000
H2316       H  0.05813660  0.31477803  0.41446600     0.08200
H2317       H  0.05386671  0.31317098  0.34671012     0.08200
H2318       H  0.96958814  0.42938194  0.41390049     0.08200
H2319       H  0.96317089  0.42245871  0.34821134     0.08200
H2320       H  0.99373235  0.44226384  0.36689998     0.05000
C2321       C  0.89701455  0.38434334  0.67214822    -0.20800
C2322       C  0.87841892  0.36767757  0.64350525    -0.07400
C2323       C  0.85840175  0.35032108  0.66865523     0.13500
C2324       C  0.85748691  0.35040486  0.72120848    -0.20900
C2325       C  0.87612298  0.36705587  0.74958208    -0.07400
C2326       C  0.89606413  0.38434876  0.72464820     0.13500
C2327       C  0.91555120  0.40378145  0.75303949    -0.24200
H2328       H  0.91239663  0.39766846  0.65327531     0.14800
H2329       H  0.84195143  0.33741353  0.74046211     0.14800
C2330       C  0.83844294  0.33104086  0.64086758    -0.24200
H2331       H  0.92891249  0.41672136  0.72750945     0.05000
H2332       H  0.93007752  0.39103321  0.77696230     0.08200
H2333       H  0.90274177  0.41863620  0.77674652     0.08200
H2334       H  0.85083669  0.31607178  0.61671115     0.08200
H2335       H  0.82361689  0.34390146  0.61768537     0.08200
H2336       H  0.82528237  0.31814454  0.66679638     0.05000
C2337       C  0.85908460  0.35542979  0.16709843    -0.20800
C2338       C  0.87445859  0.37724961  0.14401047    -0.07400
C2339       C  0.88834169  0.39769579  0.17403695     0.13500
C2340       C  0.88726638  0.39512351  0.22631097    -0.20900
C2341       C  0.87246203  0.37289263  0.24913907    -0.07400
C2342       C  0.85789031  0.35300267  0.21929054     0.13500
C2343       C  0.84185616  0.32861443  0.24232408    -0.24200
H2344       H  0.84888594  0.33951261  0.14414188     0.14800
H2345       H  0.89747848  0.41088860  0.24956915     0.14800
C2346       C  0.90349561  0.42277058  0.15141404    -0.24200
H2347       H  0.83299836  0.31427726  0.21340459     0.05000
H2348       H  0.82377366  0.33678700  0.26532167     0.08200
H2349       H  0.85640987  0.31583638  0.26618917     0.08200
H2350       H  0.88879873  0.43457431  0.12632747     0.08200
H2351       H  0.92257172  0.41557440  0.13002566     0.08200
H2352       H  0.91085664  0.43781232  0.18056558     0.05000
C2353       C  0.91522193  0.27163422  0.56675123    -0.20800
C2354       C  0.89186220  0.28014140  0.53701874    -0.07400
C2355       C  0.86761957  0.26222848  0.53661828     0.13500
C2356       C  0.86781409  0.23676111  0.56483368    -0.20900
C2357       C  0.89137629  0.22849738  0.59390413    -0.07400
C2358       C  0.91527401  0.24648068  0.59504487     0.13500
C2359       C  0.94077634  0.23982073  0.62724914    -0.24200
H2360       H  0.93380093  0.28501408  0.56881654     0.14800
H2361       H  0.84964833  0.22276468  0.56312754     0.14800
C2362       C  0.84142603  0.26943352  0.50678105    -0.24200
H2363       H  0.95617924  0.25758338  0.62756352     0.05000
H2364       H  0.95235937  0.22076095  0.61289718     0.08200
H2365       H  0.93375059  0.23611827  0.66641508     0.08200
H2366       H  0.84720881  0.27198190  0.46672439     0.08200
H2367       H  0.83141941  0.28931724  0.52134777     0.08200
H2368       H  0.82521022  0.25245510  0.50931765     0.05000
loop_ 
_geom_bond_atom_site_label_1 
_geom_bond_atom_site_label_2 
_geom_bond_distance 
_geom_bond_site_symmetry_2 
_ccdc_geom_bond_type 
O1           Ni7   1.883       .  S
O1           C22   1.259       .  A
O2          Ni25   1.916       .  S
O2           C11   1.270       .  A
O3           Ni7   1.901       .  S
O3          Ni25   1.897       .  S
O3          Ni19   1.935       .  S
O3           H26   0.966       .  S
C4           O21   1.285       .  A
C4           O13   1.281       .  A
C4         C2322   1.490       .  S
O5          Ni24   1.932       .  S
O5           C11   1.276       .  A
O6          Ni24   1.908       .  S
O6            C8   1.271       .  A
Ni7          O10   1.905       .  S
Ni7          O12   1.903       .  S
C8           O18   1.277       .  A
C8         C2354   1.512       .  S
O9          Ni25   1.935       .  S
O9           C15   1.284       .  A
O10          C15   1.275       .  A
C11        C2306   1.488       .  S
O12          C14   1.265       .  A
O13         Ni24   1.919       .  S
C14          O20   1.271       .  A
C14        C2290   1.497       .  S
C15        C2341   1.470       .  S
H16          O17   0.966       .  S
O17         Ni25   1.922       .  S
O17         Ni19   1.905       .  S
O17         Ni24   1.882       .  S
O18         Ni19   1.944       .  S
Ni19         O23   1.945       .  S
Ni19         O21   1.937       .  S
O20         Ni25   1.937       .  S
C22          O23   1.271       .  A
C22        C2274   1.483       .  S
O27         Ni33   1.884       .  S
O27          C48   1.258       .  A
O28         Ni51   1.918       .  S
O28          C37   1.271       .  A
O29         Ni33   1.898       .  S
O29         Ni51   1.896       .  S
O29         Ni45   1.938       .  S
O29          H52   0.967       .  S
C30          O47   1.287       .  A
C30          O39   1.277       .  A
C30        C2338   1.477       .  S
O31         Ni50   1.927   1_556  S
O31          C37   1.273       .  A
O32         Ni50   1.905       .  S
O32          C34   1.271       .  A
Ni33         O36   1.911       .  S
Ni33         O38   1.900       .  S
C34          O44   1.277   1_554  A
C34        C2258   1.505       .  S
O35         Ni51   1.938       .  S
O35          C41   1.285       .  A
O36          C41   1.277       .  A
C37        C2242   1.482       .  S
O38          C40   1.266       .  A
O39         Ni50   1.910       .  S
C40          O46   1.269       .  A
C40        C2226   1.500       .  S
C41        C2325   1.482       .  S
H42          O43   0.966       .  S
O43         Ni51   1.918       .  S
O43         Ni45   1.903       .  S
O43         Ni50   1.877   1_556  S
O44         Ni45   1.942       .  S
Ni45         O49   1.947       .  S
Ni45         O47   1.939   1_556  S
O46         Ni51   1.934       .  S
C48          O49   1.272       .  A
C48        C2210   1.482       .  S
O53         Ni59   1.886       .  S
O53          C74   1.258       .  A
O54         Ni77   1.923       .  S
O54          C63   1.270       .  A
O55         Ni59   1.894       .  S
O55         Ni77   1.898       .  S
O55         Ni71   1.931       .  S
O55          H78   0.966       .  S
C56          O73   1.284       .  A
C56          O65   1.280       .  A
C56        C2178   1.487   1_554  S
O57         Ni76   1.919       .  S
O57          C63   1.272       .  A
O58         Ni76   1.897       .  S
O58          C60   1.266       .  A
Ni59         O62   1.899       .  S
Ni59         O64   1.900       .  S
C60          O70   1.277       .  A
C60        C2261   1.500       .  S
O61         Ni77   1.939       .  S
O61          C67   1.285       .  A
O62          C67   1.274       .  A
C63        C2162   1.495       .  S
O64          C66   1.266       .  A
O65         Ni76   1.913       .  S
C66          O72   1.269       .  A
C66        C2146   1.489       .  S
C67        C2197   1.472       .  S
H68          O69   0.966       .  S
O69         Ni77   1.922       .  S
O69         Ni71   1.901       .  S
O69         Ni76   1.878       .  S
O70         Ni71   1.944       .  S
Ni71         O75   1.942       .  S
Ni71         O73   1.928       .  S
O72         Ni77   1.926       .  S
C74          O75   1.272       .  A
C74        C2133   1.476       .  S
O79         Ni85   1.884       .  S
O79         C100   1.258       .  A
O80        Ni103   1.919       .  S
O80          C89   1.271       .  A
O81         Ni85   1.896       .  S
O81        Ni103   1.897       .  S
O81         Ni97   1.937       .  S
O81         H104   0.966       .  S
C82          O99   1.289       .  A
C82          O91   1.277       .  A
C82        C2194   1.475       .  S
O83        Ni102   1.927       .  S
O83          C89   1.273       .  A
O84        Ni102   1.906       .  S
O84          C86   1.268       .  A
Ni85         O88   1.907       .  S
Ni85         O90   1.895       .  S
C86          O96   1.276       .  A
C86        C2357   1.494       .  S
O87        Ni103   1.926       .  S
O87          C93   1.280       .  A
O88          C93   1.277       .  A
C89        C2114   1.484       .  S
O90          C92   1.263       .  A
O91        Ni102   1.906       .  S
C92          O98   1.274       .  A
C92        C2101   1.499       .  S
C93        C2181   1.485       .  S
H94          O95   0.966       .  S
O95        Ni103   1.912       .  S
O95         Ni97   1.903       .  S
O95        Ni102   1.878       .  S
O96         Ni97   1.939       .  S
Ni97        O101   1.949       .  S
Ni97         O99   1.939       .  S
O98        Ni103   1.941       .  S
C100        O101   1.274       .  A
C100       C2082   1.481       .  S
O105       Ni111   1.929       .  S
O105        C126   1.272       .  A
O106       Ni129   1.954       .  S
O106        C115   1.274       .  A
O107       Ni111   1.886       .  S
O107       Ni129   1.907       .  S
O107       Ni123   1.914       .  S
O107        H130   0.966       .  S
C108        O125   1.281       .  A
C108        O117   1.275       .  A
C108       C2037   1.473       .  S
O109       Ni128   1.881       .  S
O109        C115   1.257       .  A
O110       Ni128   1.901       .  S
O110        C112   1.267       .  A
Ni111       O114   1.914       .  S
Ni111       O116   1.907       .  S
C112        O122   1.270       .  A
C112       C2005   1.499       .  S
O113       Ni129   1.936       .  S
O113        C119   1.288       .  A
O114        C119   1.278       .  A
C115       C1986   1.486       .  S
O116        C118   1.269       .  A
O117       Ni128   1.903   1_556  S
C118        O124   1.276       .  A
C118       C2066   1.487       .  S
C119       C2053   1.482       .  S
H120        O121   0.967       .  S
O121       Ni129   1.937       .  S
O121       Ni123   1.896       .  S
O121       Ni128   1.900       .  S
O122       Ni123   1.933       .  S
Ni123       O127   1.914       .  S
Ni123       O125   1.930   1_554  S
O124       Ni129   1.937       .  S
C126        O127   1.269       .  A
C126       C2021   1.485       .  S
O131       Ni137   1.927       .  S
O131        C152   1.273       .  A
O132       Ni155   1.951       .  S
O132        C141   1.274       .  A
O133       Ni137   1.883       .  S
O133       Ni155   1.906       .  S
O133       Ni149   1.921       .  S
O133        H156   0.966       .  S
C134        O151   1.286       .  A
C134        O143   1.275       .  A
C134       C2050   1.481       .  S
O135       Ni154   1.887       .  S
O135        C141   1.260       .  A
O136       Ni154   1.900       .  S
O136        C138   1.264       .  A
Ni137       O140   1.912       .  S
Ni137       O142   1.906       .  S
C138        O148   1.273       .  A
C138       C1938   1.506       .  S
O139       Ni155   1.933       .  S
O139        C145   1.284       .  A
O140        C145   1.280       .  A
C141       C1922   1.484       .  S
O142        C144   1.267       .  A
O143       Ni154   1.904       .  S
C144        O150   1.280       .  A
C144       C1970   1.505       .  S
C145       C2034   1.482       .  S
H146        O147   0.967       .  S
O147       Ni155   1.930       .  S
O147       Ni149   1.896       .  S
O147       Ni154   1.893       .  S
O148       Ni149   1.942       .  S
Ni149       O153   1.918       .  S
Ni149       O151   1.940       .  S
O150       Ni155   1.945       .  S
C152        O153   1.271       .  A
C152       C1954   1.478       .  S
O157       Ni163   1.923       .  S
O157        C178   1.273       .  A
O158       Ni181   1.944       .  S
O158        C167   1.271       .  A
O159       Ni163   1.878       .  S
O159       Ni181   1.897       .  S
O159       Ni175   1.920       .  S
O159        H182   0.966       .  S
C160        O177   1.286       .  A
C160        O169   1.274       .  A
C160       C1890   1.481       .  S
O161       Ni180   1.886       .  S
O161        C167   1.258       .  A
O162       Ni180   1.889       .  S
O162        C164   1.262       .  A
Ni163       O166   1.912       .  S
Ni163       O168   1.913       .  S
C164        O174   1.276       .  A
C164       C2309   1.502       .  S
O165       Ni181   1.939       .  S
O165        C171   1.287       .  A
O166        C171   1.278       .  A
C167       C1858   1.478       .  S
O168        C170   1.271       .  A
O169       Ni180   1.905       .  S
C170        O176   1.275       .  A
C170       C2069   1.505       .  S
C171       C1909   1.481       .  S
H172        O173   0.967       .  S
O173       Ni181   1.935       .  S
O173       Ni175   1.900       .  S
O173       Ni180   1.892       .  S
O174       Ni175   1.948       .  S
Ni175       O179   1.925       .  S
Ni175       O177   1.943       .  S
O176       Ni181   1.936       .  S
C178        O179   1.276       .  A
C178       C1874   1.483       .  S
O183       Ni189   1.929       .  S
O183        C204   1.272       .  A
O184       Ni207   1.941       .  S
O184        C193   1.270       .  A
O185       Ni189   1.890       .  S
O185       Ni207   1.906       .  S
O185       Ni201   1.928       .  S
O185        H208   0.966       .  S
C186        O203   1.286       .  A
C186        O195   1.276       .  A
C186       C1906   1.476   1_556  S
O187       Ni206   1.885       .  S
O187        C193   1.259       .  A
O188       Ni206   1.897       .  S
O188        C190   1.266       .  A
Ni189       O192   1.922       .  S
Ni189       O194   1.905       .  S
C190        O200   1.273       .  A
C190       C2245   1.501       .  S
O191       Ni207   1.933       .  S
O191        C197   1.283       .  A
O192        C197   1.280       .  A
C193       C1826   1.476       .  S
O194        C196   1.270       .  A
O195       Ni206   1.906       .  S
C196        O202   1.276       .  A
C196       C1973   1.502       .  S
C197       C1893   1.478       .  S
H198        O199   0.966       .  S
O199       Ni207   1.935       .  S
O199       Ni201   1.891       .  S
O199       Ni206   1.894       .  S
O200       Ni201   1.940       .  S
Ni201       O205   1.920       .  S
Ni201       O203   1.939       .  S
O202       Ni207   1.937       .  S
C204        O205   1.272       .  A
C204       C1842   1.476       .  S
O209       Ni215   1.884       .  S
O209        C230   1.258       .  A
O210       Ni233   1.916       .  S
O210        C219   1.271       .  A
O211       Ni215   1.900       .  S
O211       Ni233   1.897       .  S
O211       Ni227   1.933       .  S
O211        H234   0.966       .  S
C212        O229   1.283       .  A
C212        O221   1.281       .  A
C212       C1781   1.489       .  S
O213       Ni232   1.930       .  S
O213        C219   1.272       .  A
O214       Ni232   1.903       .  S
O214        C216   1.268       .  A
Ni215       O218   1.905       .  S
Ni215       O220   1.899       .  S
C216        O226   1.280       .  A
C216       C1810   1.500       .  S
O217       Ni233   1.934       .  S
O217        C223   1.284       .  A
O218        C223   1.276       .  A
C219       C1762   1.475       .  S
O220        C222   1.266       .  A
O221       Ni232   1.916       .  S
C222        O228   1.271       .  A
C222       C1877   1.502       .  S
C223       C1797   1.479       .  S
H224        O225   0.966       .  S
O225       Ni233   1.918       .  S
O225       Ni227   1.902       .  S
O225       Ni232   1.882       .  S
O226       Ni227   1.950       .  S
Ni227       O231   1.945       .  S
Ni227       O229   1.927       .  S
O228       Ni233   1.938       .  S
C230        O231   1.272       .  A
C230       C1746   1.483       .  S
O235       Ni241   1.892       .  S
O235        C256   1.262       .  A
O236       Ni259   1.922       .  S
O236        C245   1.271       .  A
O237       Ni241   1.903       .  S
O237       Ni259   1.901       .  S
O237       Ni253   1.929       .  S
O237        H260   0.967       .  S
C238        O255   1.287       .  A
C238        O247   1.280       .  A
C238       C1794   1.490       .  S
O239       Ni258   1.924   1_556  S
O239        C245   1.271       .  A
O240       Ni258   1.904       .  S
O240        C242   1.267       .  A
Ni241       O244   1.914       .  S
Ni241       O246   1.903       .  S
C242        O252   1.278   1_554  A
C242       C1730   1.491       .  S
O243       Ni259   1.924       .  S
O243        C249   1.282       .  A
O244        C249   1.277       .  A
C245       C1714   1.483       .  S
O246        C248   1.264       .  A
O247       Ni258   1.908       .  S
C248        O254   1.272       .  A
C248       C1845   1.489       .  S
C249       C1778   1.478       .  S
H250        O251   0.966       .  S
O251       Ni259   1.916       .  S
O251       Ni253   1.906       .  S
O251       Ni258   1.882   1_556  S
O252       Ni253   1.942       .  S
Ni253       O257   1.949       .  S
Ni253       O255   1.942   1_556  S
O254       Ni259   1.937       .  S
C256        O257   1.274       .  A
C256       C1698   1.486       .  S
O261       Ni267   1.883       .  S
O261        C282   1.259       .  A
O262       Ni285   1.917       .  S
O262        C271   1.270       .  A
O263       Ni267   1.898       .  S
O263       Ni285   1.894       .  S
O263       Ni279   1.928       .  S
O263        H286   0.967       .  S
C264        O281   1.286       .  A
C264        O273   1.279       .  A
C264       C1666   1.487   1_554  S
O265       Ni284   1.928       .  S
O265        C271   1.273       .  A
O266       Ni284   1.909       .  S
O266        C268   1.271       .  A
Ni267       O270   1.904       .  S
Ni267       O272   1.897       .  S
C268        O278   1.276       .  A
C268       C1733   1.507       .  S
O269       Ni285   1.926       .  S
O269        C275   1.283       .  A
O270        C275   1.275       .  A
C271       C1634   1.482       .  S
O272        C274   1.264       .  A
O273       Ni284   1.910       .  S
C274        O280   1.270       .  A
C274       C1650   1.475       .  S
C275       C1682   1.474       .  S
H276        O277   0.966       .  S
O277       Ni285   1.917       .  S
O277       Ni279   1.905       .  S
O277       Ni284   1.881       .  S
O278       Ni279   1.938       .  S
Ni279       O283   1.946       .  S
Ni279       O281   1.940       .  S
O280       Ni285   1.933       .  S
C282        O283   1.273       .  A
C282       C1618   1.480       .  S
O287       Ni293   1.887       .  S
O287        C308   1.260       .  A
O288       Ni311   1.916       .  S
O288        C297   1.270       .  A
O289       Ni293   1.903       .  S
O289       Ni311   1.898       .  S
O289       Ni305   1.931       .  S
O289        H312   0.966       .  S
C290        O307   1.282       .  A
C290        O299   1.280       .  A
C290       C1685   1.485       .  S
O291       Ni310   1.930       .  S
O291        C297   1.274       .  A
O292       Ni310   1.906       .  S
O292        C294   1.271       .  A
Ni293       O296   1.905       .  S
Ni293       O298   1.905       .  S
C294        O304   1.278       .  A
C294       C1813   1.514       .  S
O295       Ni311   1.936       .  S
O295        C301   1.284       .  A
O296        C301   1.275       .  A
C297       C1586   1.485       .  S
O298        C300   1.267       .  A
O299       Ni310   1.913       .  S
C300        O306   1.268       .  A
C300       C1602   1.496       .  S
C301       C1669   1.475       .  S
H302        O303   0.966       .  S
O303       Ni311   1.918       .  S
O303       Ni305   1.902       .  S
O303       Ni310   1.879       .  S
O304       Ni305   1.947       .  S
Ni305       O309   1.936       .  S
Ni305       O307   1.927       .  S
O306       Ni311   1.929       .  S
C308        O309   1.269       .  A
C308       C1570   1.474       .  S
O313       Ni319   1.932       .  S
O313        C334   1.274       .  A
O314       Ni337   1.944       .  S
O314        C323   1.271       .  A
O315       Ni319   1.882       .  S
O315       Ni337   1.902       .  S
O315       Ni331   1.913       .  S
O315        H338   0.966       .  S
C316        O333   1.282       .  A
C316        O325   1.276       .  A
C316       C1522   1.482       .  S
O317       Ni336   1.882       .  S
O317        C323   1.258       .  A
O318       Ni336   1.899       .  S
O318        C320   1.263       .  A
Ni319       O322   1.913       .  S
Ni319       O324   1.911       .  S
C320        O330   1.272       .  A
C320       C1509   1.499       .  S
O321       Ni337   1.927       .  S
O321        C327   1.284       .  A
O322        C327   1.280       .  A
C323       C1474   1.477       .  S
O324        C326   1.272       .  A
O325       Ni336   1.901   1_556  S
C326        O332   1.276       .  A
C326       C1557   1.513       .  S
C327       C1541   1.476       .  S
H328        O329   0.966       .  S
O329       Ni337   1.933       .  S
O329       Ni331   1.895       .  S
O329       Ni336   1.898       .  S
O330       Ni331   1.937       .  S
Ni331       O335   1.913       .  S
Ni331       O333   1.932   1_554  S
O332       Ni337   1.941       .  S
C334        O335   1.269       .  A
C334       C1490   1.477       .  S
O339       Ni345   1.932       .  S
O339        C360   1.275       .  A
O340       Ni363   1.949       .  S
O340        C349   1.273       .  A
O341       Ni345   1.887       .  S
O341       Ni363   1.910       .  S
O341       Ni357   1.916       .  S
O341        H364   0.966       .  S
C342        O359   1.282       .  A
C342        O351   1.274       .  A
C342       C1538   1.473       .  S
O343       Ni362   1.888       .  S
O343        C349   1.259       .  A
O344       Ni362   1.905       .  S
O344        C346   1.265       .  A
Ni345       O348   1.915       .  S
Ni345       O350   1.909       .  S
C346        O356   1.269       .  A
C346       C1445   1.490       .  S
O347       Ni363   1.927       .  S
O347        C353   1.283       .  A
O348        C353   1.279       .  A
C349       C1410   1.483       .  S
O350        C352   1.270       .  A
O351       Ni362   1.901       .  S
C352        O358   1.279       .  A
C352       C1458   1.499       .  S
C353       C1525   1.486       .  S
H354        O355   0.967       .  S
O355       Ni363   1.928       .  S
O355       Ni357   1.902       .  S
O355       Ni362   1.905       .  S
O356       Ni357   1.927       .  S
Ni357       O361   1.919       .  S
Ni357       O359   1.929       .  S
O358       Ni363   1.943       .  S
C360        O361   1.268       .  A
C360       C1426   1.487       .  S
O365       Ni371   1.932       .  S
O365        C386   1.274       .  A
O366       Ni389   1.945       .  S
O366        C375   1.272       .  A
O367       Ni371   1.882       .  S
O367       Ni389   1.904       .  S
O367       Ni383   1.917       .  S
O367        H390   0.966       .  S
C368        O385   1.283       .  A
C368        O377   1.276       .  A
C368       C1381   1.480       .  S
O369       Ni388   1.884       .  S
O369        C375   1.257       .  A
O370       Ni388   1.897       .  S
O370        C372   1.263       .  A
Ni371       O374   1.914       .  S
Ni371       O376   1.906       .  S
C372        O382   1.273       .  A
C372       C1765   1.487       .  S
O373       Ni389   1.937       .  S
O373        C379   1.286       .  A
O374        C379   1.279       .  A
C375       C1362   1.475       .  S
O376        C378   1.269       .  A
O377       Ni388   1.909       .  S
C378        O384   1.278       .  A
C378       C1554   1.499       .  S
C379       C1394   1.474       .  S
H380        O381   0.966       .  S
O381       Ni389   1.938       .  S
O381       Ni383   1.898       .  S
O381       Ni388   1.900       .  S
O382       Ni383   1.936       .  S
Ni383       O387   1.921       .  S
Ni383       O385   1.936       .  S
O384       Ni389   1.944       .  S
C386        O387   1.272       .  A
C386       C2293   1.481       .  S
O391       Ni397   1.928       .  S
O391        C412   1.274       .  A
O392       Ni415   1.940       .  S
O392        C401   1.271       .  A
O393       Ni397   1.879       .  S
O393       Ni415   1.901       .  S
O393       Ni409   1.920       .  S
O393        H416   0.966       .  S
C394        O411   1.284       .  A
C394        O403   1.275       .  A
C394       C1397   1.480   1_556  S
O395       Ni414   1.889       .  S
O395        C401   1.260       .  A
O396       Ni414   1.898       .  S
O396        C398   1.266       .  A
Ni397       O400   1.917       .  S
Ni397       O402   1.908       .  S
C398        O408   1.272       .  A
C398       C1717   1.503       .  S
O399       Ni415   1.936       .  S
O399        C405   1.285       .  A
O400        C405   1.281       .  A
C401       C1346   1.476       .  S
O402        C404   1.270       .  A
O403       Ni414   1.911       .  S
C404        O410   1.279       .  A
C404       C1461   1.513       .  S
C405       C1378   1.487       .  S
H406        O407   0.967       .  S
O407       Ni415   1.931       .  S
O407       Ni409   1.897       .  S
O407       Ni414   1.902       .  S
O408       Ni409   1.941       .  S
Ni409       O413   1.921       .  S
Ni409       O411   1.931       .  S
O410       Ni415   1.948       .  S
C412        O413   1.272       .  A
C412       C2229   1.481       .  S
O417       Ni423   1.919   1_554  S
O417        C438   1.272       .  A
O418       Ni441   1.942       .  S
O418        C427   1.270       .  A
O419       Ni423   1.877   1_554  S
O419       Ni441   1.899       .  S
O419       Ni435   1.927       .  S
O419        H442   0.966       .  S
C420        O437   1.288       .  A
C420        O429   1.272       .  A
C420       C1314   1.490       .  S
O421       Ni440   1.884       .  S
O421        C427   1.258       .  A
O422       Ni440   1.897       .  S
O422        C424   1.266       .  A
Ni423       O426   1.915       .  S
Ni423       O428   1.904       .  S
C424        O434   1.269       .  A
C424       C1285   1.495       .  S
O425       Ni441   1.930   1_556  S
O425        C431   1.283       .  A
O426        C431   1.280       .  A
C427       C1477   1.478       .  S
O428        C430   1.269       .  A
O429       Ni440   1.899       .  S
C430        O436   1.276   1_556  A
C430       C1330   1.506       .  S
C431       C1298   1.481       .  S
H432        O433   0.967       .  S
O433       Ni441   1.930       .  S
O433       Ni435   1.903       .  S
O433       Ni440   1.896       .  S
O434       Ni435   1.932       .  S
Ni435       O439   1.928       .  S
Ni435       O437   1.947       .  S
O436       Ni441   1.939       .  S
C438        O439   1.273       .  A
C438       C1269   1.499       .  S
O443       Ni449   1.931       .  S
O443        C464   1.274       .  A
O444       Ni467   1.960       .  S
O444        C453   1.276       .  A
O445       Ni449   1.880       .  S
O445       Ni467   1.907       .  S
O445       Ni461   1.918       .  S
O445        H468   0.966       .  S
C446        O463   1.283       .  A
C446        O455   1.276       .  A
C446       C1301   1.472       .  S
O447       Ni466   1.880       .  S
O447        C453   1.258       .  A
O448       Ni466   1.899       .  S
O448        C450   1.263       .  A
Ni449       O452   1.913       .  S
Ni449       O454   1.903       .  S
C450        O460   1.270       .  A
C450       C1234   1.490       .  S
O451       Ni467   1.943       .  S
O451        C457   1.290       .  A
O452        C457   1.279       .  A
C453       C1413   1.491       .  S
O454        C456   1.271       .  A
O455       Ni466   1.903       .  S
C456        O462   1.279       .  A
C456       C1250   1.511       .  S
C457       C1317   1.483       .  S
H458        O459   0.966       .  S
O459       Ni467   1.939       .  S
O459       Ni461   1.895       .  S
O459       Ni466   1.898       .  S
O460       Ni461   1.933       .  S
Ni461       O465   1.913       .  S
Ni461       O463   1.933       .  S
O462       Ni467   1.947       .  S
C464        O465   1.268       .  A
C464       C1218   1.483       .  S
O469       Ni475   1.926       .  S
O469        C490   1.272       .  A
O470       Ni493   1.938       .  S
O470        C479   1.270       .  A
O471       Ni475   1.884       .  S
O471       Ni493   1.901       .  S
O471       Ni487   1.917       .  S
O471        H494   0.966       .  S
C472        O489   1.284       .  A
C472        O481   1.276       .  A
C472       C1205   1.483       .  S
O473       Ni492   1.885       .  S
O473        C479   1.259       .  A
O474       Ni492   1.897       .  S
O474        C476   1.266       .  A
Ni475       O478   1.913       .  S
Ni475       O480   1.905       .  S
C476        O486   1.270       .  A
C476       C1637   1.500       .  S
O477       Ni493   1.925       .  S
O477        C483   1.282       .  A
O478        C483   1.280       .  A
C479       C1365   1.478       .  S
O480        C482   1.268       .  A
O481       Ni492   1.903       .  S
C482        O488   1.276       .  A
C482       C1253   1.493       .  S
C483       C1186   1.489       .  S
H484        O485   0.967       .  S
O485       Ni493   1.930       .  S
O485       Ni487   1.893       .  S
O485       Ni492   1.896       .  S
O486       Ni487   1.935       .  S
Ni487       O491   1.907       .  S
Ni487       O489   1.935       .  S
O488       Ni493   1.940       .  S
C490        O491   1.268       .  A
C490       C2149   1.471       .  S
O495       Ni501   1.926       .  S
O495        C516   1.272       .  A
O496       Ni519   1.937       .  S
O496        C505   1.269       .  A
O497       Ni501   1.892       .  S
O497       Ni519   1.906       .  S
O497       Ni513   1.913       .  S
O497        H520   0.966       .  S
C498        O515   1.278       .  A
C498        O507   1.276       .  A
C498       C1189   1.477       .  S
O499       Ni518   1.892       .  S
O499        C505   1.262       .  A
O500       Ni518   1.898       .  S
O500        C502   1.267       .  A
Ni501       O504   1.910       .  S
Ni501       O506   1.908       .  S
C502        O512   1.274       .  A
C502       C1589   1.504       .  S
O503       Ni519   1.939       .  S
O503        C509   1.286       .  A
O504        C509   1.279       .  A
C505       C1349   1.478       .  S
O506        C508   1.267       .  A
O507       Ni518   1.913       .  S
C508        O514   1.271       .  A
C508       C1333   1.485       .  S
C509       C1202   1.491   1_556  S
H510        O511   0.966       .  S
O511       Ni519   1.929       .  S
O511       Ni513   1.899       .  S
O511       Ni518   1.901       .  S
O512       Ni513   1.943       .  S
Ni513       O517   1.920       .  S
Ni513       O515   1.914       .  S
O514       Ni519   1.926       .  S
C516        O517   1.270       .  A
C516       C2098   1.486       .  S
O521       Ni527   1.883       .  S
O521        C542   1.258       .  A
O522       Ni545   1.905       .  S
O522        C531   1.266       .  A
O523       Ni527   1.897       .  S
O523       Ni545   1.888       .  S
O523       Ni539   1.933       .  S
O523        H546   0.967       .  S
C524        O541   1.284       .  A
C524        O533   1.279       .  A
C524       C1157   1.482       .  S
O525       Ni544   1.932       .  S
O525        C531   1.274       .  A
O526       Ni544   1.906       .  S
O526        C528   1.271       .  A
Ni527       O530   1.907       .  S
Ni527       O532   1.901       .  S
C528        O538   1.277       .  A
C528       C1170   1.507       .  S
O529       Ni545   1.934       .  S
O529        C535   1.283       .  A
O530        C535   1.277       .  A
C531       C1122   1.478       .  S
O532        C534   1.264       .  A
O533       Ni544   1.916       .  S
C534        O540   1.269       .  A
C534       C1266   1.485       .  S
C535       C1138   1.484   1_554  S
H536        O537   0.966       .  S
O537       Ni545   1.915       .  S
O537       Ni539   1.904       .  S
O537       Ni544   1.885       .  S
O538       Ni539   1.940       .  S
Ni539       O543   1.946       .  S
Ni539       O541   1.927       .  S
O540       Ni545   1.933       .  S
C542        O543   1.273       .  A
C542       C2130   1.482       .  S
O547       Ni553   1.883       .  S
O547        C568   1.258       .  A
O548       Ni571   1.911       .  S
O548        C557   1.268       .  A
O549       Ni553   1.897       .  S
O549       Ni571   1.897       .  S
O549       Ni565   1.935       .  S
O549        H572   0.967       .  S
C550        O567   1.285       .  A
C550        O559   1.281       .  A
C550       C1141   1.481       .  S
O551       Ni570   1.931       .  S
O551        C557   1.274       .  A
O552       Ni570   1.906       .  S
O552        C554   1.270       .  A
Ni553       O556   1.902       .  S
Ni553       O558   1.898       .  S
C554        O564   1.275       .  A
C554       C1106   1.500       .  S
O555       Ni571   1.937       .  S
O555        C561   1.283       .  A
O556        C561   1.276       .  A
C557       C1090   1.476       .  S
O558        C560   1.263       .  A
O559       Ni570   1.918       .  S
C560        O566   1.273       .  A
C560       C1221   1.497       .  S
C561       C1154   1.485       .  S
H562        O563   0.966       .  S
O563       Ni571   1.914       .  S
O563       Ni565   1.903       .  S
O563       Ni570   1.884       .  S
O564       Ni565   1.938       .  S
Ni565       O569   1.942       .  S
Ni565       O567   1.929       .  S
O566       Ni571   1.940       .  S
C568        O569   1.271       .  A
C568       C2085   1.477       .  S
O573       Ni579   1.887       .  S
O573        C594   1.258       .  A
O574       Ni597   1.929       .  S
O574        C583   1.275       .  A
O575       Ni579   1.893       .  S
O575       Ni597   1.903       .  S
O575       Ni591   1.938       .  S
O575        H598   0.966       .  S
C576        O593   1.287       .  A
C576        O585   1.278       .  A
C576       C1077   1.480       .  S
O577       Ni596   1.926       .  S
O577        C583   1.273       .  A
O578       Ni596   1.908       .  S
O578        C580   1.268       .  A
Ni579       O582   1.905       .  S
Ni579       O584   1.889       .  S
C580        O590   1.275       .  A
C580       C1173   1.491       .  S
O581       Ni597   1.940       .  S
O581        C587   1.286       .  A
O582        C587   1.275       .  A
C583       C1941   1.490       .  S
O584        C586   1.262       .  A
O585       Ni596   1.914       .  S
C586        O592   1.276       .  A
C586       C1429   1.502       .  S
C587       C1061   1.482       .  S
H588        O589   0.966       .  S
O589       Ni597   1.920       .  S
O589       Ni591   1.905       .  S
O589       Ni596   1.883       .  S
O590       Ni591   1.936       .  S
Ni591       O595   1.949       .  S
Ni591       O593   1.940       .  S
O592       Ni597   1.948       .  S
C594        O595   1.272       .  A
C594       C2277   1.479       .  S
O599       Ni605   1.884       .  S
O599        C620   1.259       .  A
O600       Ni623   1.918       .  S
O600        C609   1.271       .  A
O601       Ni605   1.900       .  S
O601       Ni623   1.896       .  S
O601       Ni617   1.942       .  S
O601        H624   0.966       .  S
C602        O619   1.289       .  A
C602        O611   1.278       .  A
C602       C1058   1.481       .  S
O603       Ni622   1.924       .  S
O603        C609   1.271       .  A
O604       Ni622   1.908       .  S
O604        C606   1.268       .  A
Ni605       O608   1.912   1_556  S
Ni605       O610   1.902   1_556  S
C606        O616   1.275       .  A
C606       C1109   1.486       .  S
O607       Ni623   1.934   1_554  S
O607        C613   1.283       .  A
O608        C613   1.276       .  A
C609       C2002   1.482       .  S
O610        C612   1.267   1_554  A
O611       Ni622   1.910       .  S
C612        O618   1.271       .  A
C612       C1493   1.494   1_556  S
C613       C1074   1.476       .  S
H614        O615   0.966       .  S
O615       Ni623   1.919       .  S
O615       Ni617   1.902       .  S
O615       Ni622   1.880       .  S
O616       Ni617   1.937       .  S
Ni617       O621   1.944       .  S
Ni617       O619   1.945       .  S
O618       Ni623   1.935       .  S
C620        O621   1.272       .  A
C620       C2213   1.477       .  S
O625       Ni631   1.886       .  S
O625        C646   1.258       .  A
O626       Ni649   1.914       .  S
O626        C635   1.271       .  A
O627       Ni631   1.899       .  S
O627       Ni649   1.898       .  S
O627       Ni643   1.932       .  S
O627        H650   0.966       .  S
C628        O645   1.282       .  A
C628        O637   1.281       .  A
C628       C1026   1.492       .  S
O629       Ni648   1.932       .  S
O629        C635   1.274       .  A
O630       Ni648   1.907       .  S
O630        C632   1.269       .  A
Ni631       O634   1.900       .  S
Ni631       O636   1.901       .  S
C632        O642   1.278       .  A
C632       C1045   1.495       .  S
O633       Ni649   1.939       .  S
O633        C639   1.284       .  A
O634        C639   1.273       .  A
C635       C1442   1.475       .  S
O636        C638   1.264       .  A
O637       Ni648   1.921       .  S
C638        O644   1.272       .  A
C638       C1957   1.494       .  S
C639       C1010   1.476       .  S
H640        O641   0.966       .  S
O641       Ni649   1.916       .  S
O641       Ni643   1.901       .  S
O641       Ni648   1.886       .  S
O642       Ni643   1.943       .  S
Ni643       O647   1.943       .  S
Ni643       O645   1.921       .  S
O644       Ni649   1.937       .  S
C646        O647   1.272       .  A
C646       C1749   1.476       .  S
O651       Ni657   1.893   1_556  S
O651        C672   1.260       .  A
O652       Ni675   1.917       .  S
O652        C661   1.270       .  A
O653       Ni657   1.900   1_556  S
O653       Ni675   1.902       .  S
O653       Ni669   1.932       .  S
O653        H676   0.967       .  S
C654        O671   1.287       .  A
C654        O663   1.278       .  A
C654       C1013   1.476       .  S
O655       Ni674   1.930       .  S
O655        C661   1.274       .  A
O656       Ni674   1.911       .  S
O656        C658   1.269       .  A
Ni657       O660   1.911       .  S
Ni657       O662   1.892   1_554  S
C658        O668   1.275       .  A
C658        C994   1.494       .  S
O659       Ni675   1.923   1_554  S
O659        C665   1.279       .  A
O660        C665   1.276       .  A
C661       C1506   1.484       .  S
O662        C664   1.266       .  A
O663       Ni674   1.911       .  S
C664        O670   1.274       .  A
C664       C2018   1.502       .  S
C665       C1029   1.489       .  S
H666        O667   0.966       .  S
O667       Ni675   1.911       .  S
O667       Ni669   1.903       .  S
O667       Ni674   1.886       .  S
O668       Ni669   1.936       .  S
Ni669       O673   1.946       .  S
Ni669       O671   1.935       .  S
O670       Ni675   1.944       .  S
C672        O673   1.273       .  A
C672       C1701   1.481       .  S
O677       Ni683   1.885       .  S
O677        C698   1.261       .  A
O678       Ni701   1.909       .  S
O678        C687   1.267       .  A
O679       Ni683   1.900       .  S
O679       Ni701   1.892       .  S
O679       Ni695   1.930       .  S
O679        H702   0.967       .  S
C680        O697   1.286       .  A
C680        O689   1.280       .  A
C680        C978   1.483       .  S
O681       Ni700   1.929       .  S
O681        C687   1.273       .  A
O682       Ni700   1.911       .  S
O682        C684   1.271       .  A
Ni683       O686   1.908       .  S
Ni683       O688   1.902       .  S
C684        O694   1.278       .  A
C684       C1042   1.512       .  S
O685       Ni701   1.920       .  S
O685        C691   1.280       .  A
O686        C691   1.276       .  A
C687       C1282   1.474       .  S
O688        C690   1.267       .  A
O689       Ni700   1.909       .  S
C690        O696   1.271       .  A
C690        C946   1.505       .  S
C691        C962   1.476   1_554  S
H692        O693   0.966       .  S
O693       Ni701   1.912       .  S
O693       Ni695   1.903       .  S
O693       Ni700   1.881       .  S
O694       Ni695   1.945       .  S
Ni695       O699   1.946       .  S
Ni695       O697   1.936       .  S
O696       Ni701   1.939       .  S
C698        O699   1.273       .  A
C698       C1621   1.482       .  S
O703       Ni709   1.880       .  S
O703        C724   1.257       .  A
O704       Ni727   1.914       .  S
O704        C713   1.271       .  A
O705       Ni709   1.890       .  S
O705       Ni727   1.892       .  S
O705       Ni721   1.932       .  S
O705        H728   0.966       .  S
C706        O723   1.282       .  A
C706        O715   1.280       .  A
C706        C965   1.484       .  S
O707       Ni726   1.929       .  S
O707        C713   1.274       .  A
O708       Ni726   1.909       .  S
O708        C710   1.271       .  A
Ni709       O712   1.899       .  S
Ni709       O714   1.897       .  S
C710        O720   1.277       .  A
C710        C997   1.512       .  S
O711       Ni727   1.937       .  S
O711        C717   1.284       .  A
O712        C717   1.277       .  A
C713       C1237   1.474       .  S
O714        C716   1.262       .  A
O715       Ni726   1.912       .  S
C716        O722   1.273       .  A
C716        C930   1.504       .  S
C717        C981   1.488       .  S
H718        O719   0.966       .  S
O719       Ni727   1.916       .  S
O719       Ni721   1.900       .  S
O719       Ni726   1.880       .  S
O720       Ni721   1.942       .  S
Ni721       O725   1.945       .  S
Ni721       O723   1.923       .  S
O722       Ni727   1.942       .  S
C724        O725   1.270       .  A
C724       C1573   1.478       .  S
O729       Ni735   1.936   1_554  S
O729        C750   1.275       .  A
O730       Ni753   1.955       .  S
O730        C739   1.273       .  A
O731       Ni735   1.885   1_554  S
O731       Ni753   1.910       .  S
O731       Ni747   1.915       .  S
O731        H754   0.966       .  S
C732        O749   1.284       .  A
C732        O741   1.275       .  A
C732        C898   1.483       .  S
O733       Ni752   1.883       .  S
O733        C739   1.256       .  A
O734       Ni752   1.891       .  S
O734        C736   1.264       .  A
Ni735       O738   1.918       .  S
Ni735       O740   1.909       .  S
C736        O746   1.270       .  A
C736       C1125   1.496       .  S
O737       Ni753   1.919   1_556  S
O737        C743   1.281       .  A
O738        C743   1.280       .  A
C739       C1989   1.484       .  S
O740        C742   1.270       .  A
O741       Ni752   1.896       .  S
C742        O748   1.280   1_556  A
C742        C917   1.500       .  S
C743        C885   1.484       .  S
H744        O745   0.967       .  S
O745       Ni753   1.927       .  S
O745       Ni747   1.900       .  S
O745       Ni752   1.898       .  S
O746       Ni747   1.935       .  S
Ni747       O751   1.920       .  S
Ni747       O749   1.935       .  S
O748       Ni753   1.948       .  S
C750        O751   1.271       .  A
C750        C949   1.487       .  S
O755       Ni761   1.925       .  S
O755        C776   1.273       .  A
O756       Ni779   1.953       .  S
O756        C765   1.273       .  A
O757       Ni761   1.881       .  S
O757       Ni779   1.905       .  S
O757       Ni773   1.914       .  S
O757        H780   0.966       .  S
C758        O775   1.282       .  A
C758        O767   1.276       .  A
C758        C882   1.477       .  S
O759       Ni778   1.886       .  S
O759        C765   1.258       .  A
O760       Ni778   1.891       .  S
O760        C762   1.262       .  A
Ni761       O764   1.910       .  S
Ni761       O766   1.904       .  S
C762        O772   1.273       .  A
C762       C1093   1.492       .  S
O763       Ni779   1.931       .  S
O763        C769   1.285       .  A
O764        C769   1.280       .  A
C765       C1925   1.485       .  S
O766        C768   1.267       .  A
O767       Ni778   1.904       .  S
C768        O774   1.277       .  A
C768        C869   1.490       .  S
C769        C901   1.489       .  S
H770        O771   0.967       .  S
O771       Ni779   1.928       .  S
O771       Ni773   1.902       .  S
O771       Ni778   1.898       .  S
O772       Ni773   1.938       .  S
Ni773       O777   1.925       .  S
Ni773       O775   1.925       .  S
O774       Ni779   1.940       .  S
C776        O777   1.272       .  A
C776        C933   1.490       .  S
O781       Ni787   1.919       .  S
O781        C802   1.272       .  A
O782       Ni805   1.943       .  S
O782        C791   1.271       .  A
O783       Ni787   1.879       .  S
O783       Ni805   1.898       .  S
O783       Ni799   1.922       .  S
O783        H806   0.966       .  S
C784        O801   1.285       .  A
C784        O793   1.276       .  A
C784        C850   1.473       .  S
O785       Ni804   1.885       .  S
O785        C791   1.258       .  A
O786       Ni804   1.893       .  S
O786        C788   1.264       .  A
Ni787       O790   1.914       .  S
Ni787       O792   1.906       .  S
C788        O798   1.271       .  A
C788       C2165   1.477       .  S
O789       Ni805   1.934       .  S
O789        C795   1.285       .  A
O790        C795   1.281       .  A
C791       C1861   1.479       .  S
O792        C794   1.269       .  A
O793       Ni804   1.903       .  S
C794        O800   1.276       .  A
C794        C866   1.507       .  S
C795        C834   1.489       .  S
H796        O797   0.966       .  S
O797       Ni805   1.930       .  S
O797       Ni799   1.899       .  S
O797       Ni804   1.895       .  S
O798       Ni799   1.937       .  S
Ni799       O803   1.926       .  S
Ni799       O801   1.932       .  S
O800       Ni805   1.939       .  S
C802        O803   1.273       .  A
C802       C1653   1.495       .  S
O807       Ni813   1.934       .  S
O807        C828   1.275       .  A
O808       Ni831   1.940       .  S
O808        C817   1.271       .  A
O809       Ni813   1.878       .  S
O809       Ni831   1.897       .  S
O809       Ni825   1.912       .  S
O809        H832   0.966       .  S
C810        O827   1.282       .  A
C810        O819   1.276       .  A
C810        C837   1.481       .  S
O811       Ni830   1.885       .  S
O811        C817   1.258       .  A
O812       Ni830   1.898       .  S
O812        C814   1.263       .  A
Ni813       O816   1.914       .  S
Ni813       O818   1.911       .  S
C814        O824   1.272       .  A
C814       C2117   1.502       .  S
O815       Ni831   1.926       .  S
O815        C821   1.284       .  A
O816        C821   1.281       .  A
C817       C1829   1.474       .  S
O818        C820   1.271       .  A
O819       Ni830   1.907       .  S
C820        O826   1.280       .  A
C820        C914   1.517       .  S
C821        C853   1.480   1_556  S
H822        O823   0.967       .  S
O823       Ni831   1.933       .  S
O823       Ni825   1.896       .  S
O823       Ni830   1.900       .  S
O824       Ni825   1.940       .  S
Ni825       O829   1.907       .  S
Ni825       O827   1.931       .  S
O826       Ni831   1.951       .  S
C828        O829   1.269       .  A
C828       C1605   1.475       .  S
C833        C834   1.410       .  A
C833        C838   1.404       .  A
C833        H840   1.084       .  S
C834        C835   1.419       .  A
C835        C836   1.402       .  A
C835        C842   1.510       .  S
C836        C837   1.405       .  A
C836        H841   1.084       .  S
C837        C838   1.413       .  A
C838        C839   1.509       .  S
C839        H843   1.111       .  S
C839        H844   1.111       .  S
C839        H845   1.110       .  S
C842        H846   1.110       .  S
C842        H847   1.110       .  S
C842        H848   1.111       .  S
C849        C850   1.405       .  A
C849        C854   1.400       .  A
C849        H856   1.085       .  S
C850        C851   1.415       .  A
C851        C852   1.400       .  A
C851        C858   1.509       .  S
C852        C853   1.406       .  A
C852        H857   1.085       .  S
C853        C854   1.416       .  A
C854        C855   1.510       .  S
C855        H859   1.110   1_554  S
C855        H860   1.110   1_554  S
C855        H861   1.111       .  S
C858        H862   1.111       .  S
C858        H863   1.104       .  S
C858        H864   1.110       .  S
C865        C866   1.413       .  A
C865        C870   1.404       .  A
C865        H872   1.083       .  S
C866        C867   1.423       .  A
C867        C868   1.412       .  A
C867        C874   1.507       .  S
C868        C869   1.405       .  A
C868        H873   1.083       .  S
C869        C870   1.413       .  A
C870        C871   1.510       .  S
C871        H875   1.111       .  S
C871        H876   1.111       .  S
C871        H877   1.108       .  S
C874        H878   1.109       .  S
C874        H879   1.110       .  S
C874        H880   1.111       .  S
C881        C882   1.406       .  A
C881        C886   1.399       .  A
C881        H888   1.084       .  S
C882        C883   1.412       .  A
C883        C884   1.401       .  A
C883        C890   1.509       .  S
C884        C885   1.409       .  A
C884        H889   1.084       .  S
C885        C886   1.417       .  A
C886        C887   1.509       .  S
C887        H891   1.111       .  S
C887        H892   1.110       .  S
C887        H893   1.108       .  S
C890        H894   1.111       .  S
C890        H895   1.110       .  S
C890        H896   1.111       .  S
C897        C898   1.407       .  A
C897        C902   1.400       .  A
C897        H904   1.084       .  S
C898        C899   1.413       .  A
C899        C900   1.403       .  A
C899        C906   1.509       .  S
C900        C901   1.412       .  A
C900        H905   1.084       .  S
C901        C902   1.417       .  A
C902        C903   1.510       .  S
C903        H907   1.111       .  S
C903        H908   1.110       .  S
C903        H909   1.108       .  S
C906        H910   1.111       .  S
C906        H911   1.110       .  S
C906        H912   1.111       .  S
C913        C914   1.416       .  A
C913        C918   1.409       .  A
C913        H920   1.083       .  S
C914        C915   1.423       .  A
C915        C916   1.416       .  A
C915        C922   1.506       .  S
C916        C917   1.408       .  A
C916        H921   1.082       .  S
C917        C918   1.415       .  A
C918        C919   1.510   1_556  S
C919        H923   1.111       .  S
C919        H924   1.111       .  S
C919        H925   1.109   1_554  S
C922        H926   1.109       .  S
C922        H927   1.110       .  S
C922        H928   1.111       .  S
C929        C930   1.411       .  A
C929        C934   1.412   1_565  A
C929        H936   1.083       .  S
C930        C931   1.427       .  A
C931        C932   1.403   1_565  A
C931        C938   1.512       .  S
C932        C933   1.401       .  A
C932        H937   1.085       .  S
C933        C934   1.415       .  A
C934        C935   1.506       .  S
C935        H939   1.111       .  S
C935        H940   1.110       .  S
C935        H941   1.110       .  S
C938        H942   1.110       .  S
C938        H943   1.110       .  S
C938        H944   1.111       .  S
C945        C946   1.411       .  A
C945        C950   1.403   1_565  A
C945        H952   1.083       .  S
C946        C947   1.425       .  A
C947        C948   1.414   1_565  A
C947        C954   1.508       .  S
C948        C949   1.404       .  A
C948        H953   1.084       .  S
C949        C950   1.411       .  A
C950        C951   1.509       .  S
C951        H955   1.111       .  S
C951        H956   1.109       .  S
C951        H957   1.111       .  S
C954        H958   1.109       .  S
C954        H959   1.110       .  S
C954        H960   1.111       .  S
C961        C962   1.405       .  A
C961        C966   1.401       .  A
C961        H968   1.084       .  S
C962        C963   1.411       .  A
C963        C964   1.400       .  A
C963        C970   1.508   1_556  S
C964        C965   1.409       .  A
C964        H969   1.084       .  S
C965        C966   1.418       .  A
C966        C967   1.510       .  S
C967        H971   1.111       .  S
C967        H972   1.111       .  S
C967        H973   1.110       .  S
C970        H974   1.110       .  S
C970        H975   1.109       .  S
C970        H976   1.111   1_554  S
C977        C978   1.410       .  A
C977        C982   1.402       .  A
C977        H984   1.084       .  S
C978        C979   1.411       .  A
C979        C980   1.401       .  A
C979        C986   1.509       .  S
C980        C981   1.412       .  A
C980        H985   1.084       .  S
C981        C982   1.414       .  A
C982        C983   1.509       .  S
C983        H987   1.111       .  S
C983        H988   1.110       .  S
C983        H989   1.110       .  S
C986        H990   1.109       .  S
C986        H991   1.110       .  S
C986        H992   1.111       .  S
C993        C994   1.407       .  A
C993        C998   1.413       .  A
C993       H1000   1.084       .  S
C994        C995   1.413       .  A
C995        C996   1.407       .  A
C995       C1002   1.509       .  S
C996        C997   1.415       .  A
C996       H1001   1.083       .  S
C997        C998   1.424       .  A
C998        C999   1.507       .  S
C999       H1003   1.111       .  S
C999       H1004   1.110       .  S
C999       H1005   1.110       .  S
C1002      H1006   1.108       .  S
C1002      H1007   1.111       .  S
C1002      H1008   1.111       .  S
C1009      C1010   1.402       .  A
C1009      C1014   1.403       .  A
C1009      H1016   1.084       .  S
C1010      C1011   1.417       .  A
C1011      C1012   1.401       .  A
C1011      C1018   1.509       .  S
C1012      C1013   1.402       .  A
C1012      H1017   1.085       .  S
C1013      C1014   1.417       .  A
C1014      C1015   1.509       .  S
C1015      H1019   1.111       .  S
C1015      H1020   1.110       .  S
C1015      H1021   1.109       .  S
C1018      H1022   1.109       .  S
C1018      H1023   1.110       .  S
C1018      H1024   1.111       .  S
C1025      C1026   1.411       .  A
C1025      C1030   1.404       .  A
C1025      H1032   1.084       .  S
C1026      C1027   1.418       .  A
C1027      C1028   1.401       .  A
C1027      C1034   1.509       .  S
C1028      C1029   1.407       .  A
C1028      H1033   1.084       .  S
C1029      C1030   1.416       .  A
C1030      C1031   1.510       .  S
C1031      H1035   1.111       .  S
C1031      H1036   1.110       .  S
C1031      H1037   1.111       .  S
C1034      H1038   1.110       .  S
C1034      H1039   1.110       .  S
C1034      H1040   1.111       .  S
C1041      C1042   1.415       .  A
C1041      C1046   1.407       .  A
C1041      H1048   1.083       .  S
C1042      C1043   1.422       .  A
C1043      C1044   1.415       .  A
C1043      C1050   1.507       .  S
C1044      C1045   1.408       .  A
C1044      H1049   1.084       .  S
C1045      C1046   1.412       .  A
C1046      C1047   1.509       .  S
C1047      H1051   1.111       .  S
C1047      H1052   1.109       .  S
C1047      H1053   1.110       .  S
C1050      H1054   1.110       .  S
C1050      H1055   1.109       .  S
C1050      H1056   1.111       .  S
C1057      C1058   1.399       .  A
C1057      C1062   1.405       .  A
C1057      H1064   1.084       .  S
C1058      C1059   1.422       .  A
C1059      C1060   1.403       .  A
C1059      C1066   1.509       .  S
C1060      C1061   1.397       .  A
C1060      H1065   1.084       .  S
C1061      C1062   1.423       .  A
C1062      C1063   1.510       .  S
C1063      H1067   1.111       .  S
C1063      H1068   1.111       .  S
C1063      H1069   1.109       .  S
C1066      H1070   1.109       .  S
C1066      H1071   1.109       .  S
C1066      H1072   1.111       .  S
C1073      C1074   1.401       .  A
C1073      C1078   1.404       .  A
C1073      H1080   1.085       .  S
C1074      C1075   1.415       .  A
C1075      C1076   1.405       .  A
C1075      C1082   1.508       .  S
C1076      C1077   1.403       .  A
C1076      H1081   1.084       .  S
C1077      C1078   1.418       .  A
C1078      C1079   1.509       .  S
C1079      H1083   1.111       .  S
C1079      H1084   1.110       .  S
C1079      H1085   1.109       .  S
C1082      H1086   1.109       .  S
C1082      H1087   1.110       .  S
C1082      H1088   1.111       .  S
C1089      C1090   1.397       .  A
C1089      C1094   1.401       .  A
C1089      H1096   1.085       .  S
C1090      C1091   1.412       .  A
C1091      C1092   1.408       .  A
C1091      C1098   1.507       .  S
C1092      C1093   1.409       .  A
C1092      H1097   1.084       .  S
C1093      C1094   1.424       .  A
C1094      C1095   1.511       .  S
C1095      H1099   1.111       .  S
C1095      H1100   1.109       .  S
C1095      H1101   1.110       .  S
C1098      H1102   1.110       .  S
C1098      H1103   1.110       .  S
C1098      H1104   1.111       .  S
C1105      C1106   1.411       .  A
C1105      C1110   1.403       .  A
C1105      H1112   1.084       .  S
C1106      C1107   1.418       .  A
C1107      C1108   1.415       .  A
C1107      C1114   1.506       .  S
C1108      C1109   1.409       .  A
C1108      H1113   1.084       .  S
C1109      C1110   1.408       .  A
C1110      C1111   1.508       .  S
C1111      H1115   1.111       .  S
C1111      H1116   1.109       .  S
C1111      H1117   1.110       .  S
C1114      H1118   1.110       .  S
C1114      H1119   1.109       .  S
C1114      H1120   1.111       .  S
C1121      C1122   1.404       .  A
C1121      C1126   1.410       .  A
C1121      H1128   1.084       .  S
C1122      C1123   1.410       .  A
C1123      C1124   1.398       .  A
C1123      C1130   1.510       .  S
C1124      C1125   1.410       .  A
C1124      H1129   1.083       .  S
C1125      C1126   1.421       .  A
C1126      C1127   1.507       .  S
C1127      H1131   1.111       .  S
C1127      H1132   1.110       .  S
C1127      H1133   1.110       .  S
C1130      H1134   1.111       .  S
C1130      H1135   1.109       .  S
C1130      H1136   1.111       .  S
C1137      C1138   1.408       .  A
C1137      C1142   1.404       .  A
C1137      H1144   1.084       .  S
C1138      C1139   1.416       .  A
C1139      C1140   1.402       .  A
C1139      C1146   1.509       .  S
C1140      C1141   1.405       .  A
C1140      H1145   1.084       .  S
C1141      C1142   1.414       .  A
C1142      C1143   1.509       .  S
C1143      H1147   1.111       .  S
C1143      H1148   1.111       .  S
C1143      H1149   1.110       .  S
C1146      H1150   1.110   1_556  S
C1146      H1151   1.111   1_556  S
C1146      H1152   1.111       .  S
C1153      C1154   1.407       .  A
C1153      C1158   1.401       .  A
C1153      H1160   1.084       .  S
C1154      C1155   1.415       .  A
C1155      C1156   1.405       .  A
C1155      C1162   1.508       .  S
C1156      C1157   1.408       .  A
C1156      H1161   1.084       .  S
C1157      C1158   1.415       .  A
C1158      C1159   1.510       .  S
C1159      H1163   1.111       .  S
C1159      H1164   1.111       .  S
C1159      H1165   1.110       .  S
C1162      H1166   1.110       .  S
C1162      H1167   1.111       .  S
C1162      H1168   1.111       .  S
C1169      C1170   1.414       .  A
C1169      C1174   1.405       .  A
C1169      H1176   1.083       .  S
C1170      C1171   1.422       .  A
C1171      C1172   1.412       .  A
C1171      C1178   1.507       .  S
C1172      C1173   1.407       .  A
C1172      H1177   1.084       .  S
C1173      C1174   1.412       .  A
C1174      C1175   1.510       .  S
C1175      H1179   1.111       .  S
C1175      H1180   1.108       .  S
C1175      H1181   1.111       .  S
C1178      H1182   1.110       .  S
C1178      H1183   1.110       .  S
C1178      H1184   1.111       .  S
C1185      C1186   1.411       .  A
C1185      C1190   1.401       .  A
C1185      H1192   1.083       .  S
C1186      C1187   1.419       .  A
C1187      C1188   1.400       .  A
C1187      C1194   1.510       .  S
C1188      C1189   1.404       .  A
C1188      H1193   1.084       .  S
C1189      C1190   1.412       .  A
C1190      C1191   1.510       .  S
C1191      H1195   1.111       .  S
C1191      H1196   1.111       .  S
C1191      H1197   1.110       .  S
C1194      H1198   1.110       .  S
C1194      H1199   1.110       .  S
C1194      H1200   1.111       .  S
C1201      C1202   1.411       .  A
C1201      C1206   1.404       .  A
C1201      H1208   1.084       .  S
C1202      C1203   1.417       .  A
C1203      C1204   1.402       .  A
C1203      C1210   1.508       .  S
C1204      C1205   1.407       .  A
C1204      H1209   1.084       .  S
C1205      C1206   1.412       .  A
C1206      C1207   1.509       .  S
C1207      H1211   1.111       .  S
C1207      H1212   1.111       .  S
C1207      H1213   1.110       .  S
C1210      H1214   1.110   1_554  S
C1210      H1215   1.107   1_554  S
C1210      H1216   1.111       .  S
C1217      C1218   1.399   1_545  A
C1217      C1222   1.401       .  A
C1217      H1224   1.085   1_545  S
C1218      C1219   1.414   1_565  A
C1219      C1220   1.410       .  A
C1219      C1226   1.507   1_545  S
C1220      C1221   1.410       .  A
C1220      H1225   1.084       .  S
C1221      C1222   1.424       .  A
C1222      C1223   1.511       .  S
C1223      H1227   1.111       .  S
C1223      H1228   1.110       .  S
C1223      H1229   1.109       .  S
C1226      H1230   1.110       .  S
C1226      H1231   1.110       .  S
C1226      H1232   1.111   1_565  S
C1233      C1234   1.409       .  A
C1233      C1238   1.408       .  A
C1233      H1240   1.084       .  S
C1234      C1235   1.421       .  A
C1235      C1236   1.403       .  A
C1235      C1242   1.509       .  S
C1236      C1237   1.398       .  A
C1236      H1241   1.085       .  S
C1237      C1238   1.411       .  A
C1238      C1239   1.507       .  S
C1239      H1243   1.111       .  S
C1239      H1244   1.111       .  S
C1239      H1245   1.110       .  S
C1242      H1246   1.109       .  S
C1242      H1247   1.110       .  S
C1242      H1248   1.111       .  S
C1249      C1250   1.415       .  A
C1249      C1254   1.404       .  A
C1249      H1256   1.083       .  S
C1250      C1251   1.423       .  A
C1251      C1252   1.415       .  A
C1251      C1258   1.507       .  S
C1252      C1253   1.407       .  A
C1252      H1257   1.084       .  S
C1253      C1254   1.413       .  A
C1254      C1255   1.511       .  S
C1255      H1259   1.111       .  S
C1255      H1260   1.111       .  S
C1255      H1261   1.108       .  S
C1258      H1262   1.110       .  S
C1258      H1263   1.110       .  S
C1258      H1264   1.111       .  S
C1265      C1266   1.406       .  A
C1265      C1270   1.413       .  A
C1265      H1272   1.084       .  S
C1266      C1267   1.414       .  A
C1267      C1268   1.400       .  A
C1267      C1274   1.511       .  S
C1268      C1269   1.408   1_545  A
C1268      H1273   1.083       .  S
C1269      C1270   1.421   1_565  A
C1270      C1271   1.506   1_545  S
C1271      H1275   1.111   1_565  S
C1271      H1276   1.110       .  S
C1271      H1277   1.109       .  S
C1274      H1278   1.109       .  S
C1274      H1279   1.111       .  S
C1274      H1280   1.111   1_554  S
C1281      C1282   1.402       .  A
C1281      C1286   1.409       .  A
C1281      H1288   1.084       .  S
C1282      C1283   1.408       .  A
C1283      C1284   1.400       .  A
C1283      C1290   1.508       .  S
C1284      C1285   1.410       .  A
C1284      H1289   1.084       .  S
C1285      C1286   1.422       .  A
C1286      C1287   1.507       .  S
C1287      H1291   1.111       .  S
C1287      H1292   1.110       .  S
C1287      H1293   1.110       .  S
C1290      H1294   1.111       .  S
C1290      H1295   1.109       .  S
C1290      H1296   1.111       .  S
C1297      C1298   1.407       .  A
C1297      C1302   1.403       .  A
C1297      H1304   1.084       .  S
C1298      C1299   1.418       .  A
C1299      C1300   1.401       .  A
C1299      C1306   1.509       .  S
C1300      C1301   1.402       .  A
C1300      H1305   1.084       .  S
C1301      C1302   1.412       .  A
C1302      C1303   1.508       .  S
C1303      H1307   1.111       .  S
C1303      H1308   1.111       .  S
C1303      H1309   1.110       .  S
C1306      H1310   1.110       .  S
C1306      H1311   1.109       .  S
C1306      H1312   1.111       .  S
C1313      C1314   1.401       .  A
C1313      C1318   1.406       .  A
C1313      H1320   1.084       .  S
C1314      C1315   1.428       .  A
C1315      C1316   1.402       .  A
C1315      C1322   1.511       .  S
C1316      C1317   1.395       .  A
C1316      H1321   1.084       .  S
C1317      C1318   1.422       .  A
C1318      C1319   1.509       .  S
C1319      H1323   1.111       .  S
C1319      H1324   1.109       .  S
C1319      H1325   1.109       .  S
C1322      H1326   1.109       .  S
C1322      H1327   1.111       .  S
C1322      H1328   1.111       .  S
C1329      C1330   1.415       .  A
C1329      C1334   1.403       .  A
C1329      H1336   1.083       .  S
C1330      C1331   1.422       .  A
C1331      C1332   1.411       .  A
C1331      C1338   1.507       .  S
C1332      C1333   1.406       .  A
C1332      H1337   1.083       .  S
C1333      C1334   1.409       .  A
C1334      C1335   1.509       .  S
C1335      H1339   1.111       .  S
C1335      H1340   1.111       .  S
C1335      H1341   1.108       .  S
C1338      H1342   1.109       .  S
C1338      H1343   1.110   1_556  S
C1338      H1344   1.111       .  S
C1345      C1346   1.396       .  A
C1345      C1350   1.404       .  A
C1345      H1352   1.084       .  S
C1346      C1347   1.420       .  A
C1347      C1348   1.404       .  A
C1347      C1354   1.506       .  S
C1348      C1349   1.396       .  A
C1348      H1353   1.084       .  S
C1349      C1350   1.420       .  A
C1350      C1351   1.505       .  S
C1351      H1355   1.111       .  S
C1351      H1356   1.110       .  S
C1351      H1357   1.107       .  S
C1354      H1358   1.110       .  S
C1354      H1359   1.109       .  S
C1354      H1360   1.111       .  S
C1361      C1362   1.411       .  A
C1361      C1366   1.406       .  A
C1361      H1368   1.084       .  S
C1362      C1363   1.405       .  A
C1363      C1364   1.404       .  A
C1363      C1370   1.506       .  S
C1364      C1365   1.411       .  A
C1364      H1369   1.084       .  S
C1365      C1366   1.406       .  A
C1366      C1367   1.506       .  S
C1367      H1371   1.111       .  S
C1367      H1372   1.110       .  S
C1367      H1373   1.110       .  S
C1370      H1374   1.110       .  S
C1370      H1375   1.110       .  S
C1370      H1376   1.111       .  S
C1377      C1378   1.408       .  A
C1377      C1382   1.404       .  A
C1377      H1384   1.084       .  S
C1378      C1379   1.419       .  A
C1379      C1380   1.404       .  A
C1379      C1386   1.509       .  S
C1380      C1381   1.404       .  A
C1380      H1385   1.084       .  S
C1381      C1382   1.413       .  A
C1382      C1383   1.508       .  S
C1383      H1387   1.111       .  S
C1383      H1388   1.111       .  S
C1383      H1389   1.110       .  S
C1386      H1390   1.110       .  S
C1386      H1391   1.109       .  S
C1386      H1392   1.111       .  S
C1393      C1394   1.398       .  A
C1393      C1398   1.405       .  A
C1393      H1400   1.084       .  S
C1394      C1395   1.418       .  A
C1395      C1396   1.402       .  A
C1395      C1402   1.509       .  S
C1396      C1397   1.399       .  A
C1396      H1401   1.084       .  S
C1397      C1398   1.422       .  A
C1398      C1399   1.510       .  S
C1399      H1403   1.111       .  S
C1399      H1404   1.109       .  S
C1399      H1405   1.111       .  S
C1402      H1406   1.108       .  S
C1402      H1407   1.109       .  S
C1402      H1408   1.111       .  S
C1409      C1410   1.412       .  A
C1409      C1414   1.412       .  A
C1409      H1416   1.084       .  S
C1410      C1411   1.405       .  A
C1411      C1412   1.407       .  A
C1411      C1418   1.506       .  S
C1412      C1413   1.414       .  A
C1412      H1417   1.084       .  S
C1413      C1414   1.408       .  A
C1414      C1415   1.504       .  S
C1415      H1419   1.111       .  S
C1415      H1420   1.111       .  S
C1415      H1421   1.110       .  S
C1418      H1422   1.110       .  S
C1418      H1423   1.110       .  S
C1418      H1424   1.111       .  S
C1425      C1426   1.397       .  A
C1425      C1430   1.400       .  A
C1425      H1432   1.085       .  S
C1426      C1427   1.416       .  A
C1427      C1428   1.413       .  A
C1427      C1434   1.506       .  S
C1428      C1429   1.411       .  A
C1428      H1433   1.084       .  S
C1429      C1430   1.429       .  A
C1430      C1431   1.512       .  S
C1431      H1435   1.111       .  S
C1431      H1436   1.110       .  S
C1431      H1437   1.110       .  S
C1434      H1438   1.110       .  S
C1434      H1439   1.110       .  S
C1434      H1440   1.111       .  S
C1441      C1442   1.399       .  A
C1441      C1446   1.404       .  A
C1441      H1448   1.084       .  S
C1442      C1443   1.410       .  A
C1443      C1444   1.407       .  A
C1443      C1450   1.507       .  S
C1444      C1445   1.409       .  A
C1444      H1449   1.084       .  S
C1445      C1446   1.420       .  A
C1446      C1447   1.509       .  S
C1447      H1451   1.111       .  S
C1447      H1452   1.109       .  S
C1447      H1453   1.110       .  S
C1450      H1454   1.111       .  S
C1450      H1455   1.110       .  S
C1450      H1456   1.111       .  S
C1457      C1458   1.407       .  A
C1457      C1462   1.413       .  A
C1457      H1464   1.081       .  S
C1458      C1459   1.414       .  A
C1459      C1460   1.408       .  A
C1459      C1466   1.509       .  S
C1460      C1461   1.415       .  A
C1460      H1465   1.083       .  S
C1461      C1462   1.422       .  A
C1462      C1463   1.506       .  S
C1463      H1467   1.111       .  S
C1463      H1468   1.108       .  S
C1463      H1469   1.110       .  S
C1466      H1470   1.111       .  S
C1466      H1471   1.108       .  S
C1466      H1472   1.111       .  S
C1473      C1474   1.411       .  A
C1473      C1478   1.406       .  A
C1473      H1480   1.084       .  S
C1474      C1475   1.405       .  A
C1475      C1476   1.406       .  A
C1475      C1482   1.506       .  S
C1476      C1477   1.411       .  A
C1476      H1481   1.084       .  S
C1477      C1478   1.405       .  A
C1478      C1479   1.506   1_554  S
C1479      H1483   1.111       .  S
C1479      H1484   1.110       .  S
C1479      H1485   1.110       .  S
C1482      H1486   1.111       .  S
C1482      H1487   1.110       .  S
C1482      H1488   1.111       .  S
C1489      C1490   1.403       .  A
C1489      C1494   1.410       .  A
C1489      H1496   1.084       .  S
C1490      C1491   1.409       .  A
C1491      C1492   1.402   1_554  A
C1491      C1498   1.508   1_554  S
C1492      C1493   1.409   1_556  A
C1492      H1497   1.084       .  S
C1493      C1494   1.421       .  A
C1494      C1495   1.508       .  S
C1495      H1499   1.111       .  S
C1495      H1500   1.111       .  S
C1495      H1501   1.110   1_554  S
C1498      H1502   1.109   1_556  S
C1498      H1503   1.111       .  S
C1498      H1504   1.111       .  S
C1505      C1506   1.400       .  A
C1505      C1510   1.403   1_556  A
C1505      H1512   1.085       .  S
C1506      C1507   1.413       .  A
C1507      C1508   1.409   1_556  A
C1507      C1514   1.506       .  S
C1508      C1509   1.410       .  A
C1508      H1513   1.084       .  S
C1509      C1510   1.425       .  A
C1510      C1511   1.510       .  S
C1511      H1515   1.111       .  S
C1511      H1516   1.109   1_554  S
C1511      H1517   1.111       .  S
C1514      H1518   1.110       .  S
C1514      H1519   1.109   1_556  S
C1514      H1520   1.111       .  S
C1521      C1522   1.407       .  A
C1521      C1526   1.400       .  A
C1521      H1528   1.084       .  S
C1522      C1523   1.414       .  A
C1523      C1524   1.403       .  A
C1523      C1530   1.509       .  S
C1524      C1525   1.409       .  A
C1524      H1529   1.084       .  S
C1525      C1526   1.416       .  A
C1526      C1527   1.507       .  S
C1527      H1531   1.111       .  S
C1527      H1532   1.104       .  S
C1527      H1533   1.110       .  S
C1530      H1534   1.111       .  S
C1530      H1535   1.110       .  S
C1530      H1536   1.111       .  S
C1537      C1538   1.404       .  A
C1537      C1542   1.400       .  A
C1537      H1544   1.084       .  S
C1538      C1539   1.412       .  A
C1539      C1540   1.401       .  A
C1539      C1546   1.508       .  S
C1540      C1541   1.406       .  A
C1540      H1545   1.084       .  S
C1541      C1542   1.415       .  A
C1542      C1543   1.509       .  S
C1543      H1547   1.111       .  S
C1543      H1548   1.110       .  S
C1543      H1549   1.109       .  S
C1546      H1550   1.111       .  S
C1546      H1551   1.110       .  S
C1546      H1552   1.111       .  S
C1553      C1554   1.408       .  A
C1553      C1558   1.415       .  A
C1553      H1560   1.084       .  S
C1554      C1555   1.415       .  A
C1555      C1556   1.407       .  A
C1555      C1562   1.510       .  S
C1556      C1557   1.413       .  A
C1556      H1561   1.083       .  S
C1557      C1558   1.425       .  A
C1558      C1559   1.507       .  S
C1559      H1563   1.111       .  S
C1559      H1564   1.109       .  S
C1559      H1565   1.110       .  S
C1562      H1566   1.111       .  S
C1562      H1567   1.108       .  S
C1562      H1568   1.111       .  S
C1569      C1570   1.410       .  A
C1569      C1574   1.407       .  A
C1569      H1576   1.084       .  S
C1570      C1571   1.404       .  A
C1571      C1572   1.403       .  A
C1571      C1578   1.506       .  S
C1572      C1573   1.411       .  A
C1572      H1577   1.084       .  S
C1573      C1574   1.406       .  A
C1574      C1575   1.505       .  S
C1575      H1579   1.111       .  S
C1575      H1580   1.110       .  S
C1575      H1581   1.111       .  S
C1578      H1582   1.110       .  S
C1578      H1583   1.110       .  S
C1578      H1584   1.111       .  S
C1585      C1586   1.404   1_655  A
C1585      C1590   1.412       .  A
C1585      H1592   1.084   1_655  S
C1586      C1587   1.412   1_455  A
C1587      C1588   1.401       .  A
C1587      C1594   1.510   1_655  S
C1588      C1589   1.411       .  A
C1588      H1593   1.083       .  S
C1589      C1590   1.423       .  A
C1590      C1591   1.505       .  S
C1591      H1595   1.111       .  S
C1591      H1596   1.110       .  S
C1591      H1597   1.108       .  S
C1594      H1598   1.110       .  S
C1594      H1599   1.109       .  S
C1594      H1600   1.111   1_455  S
C1601      C1602   1.410       .  A
C1601      C1606   1.402   1_565  A
C1601      H1608   1.084       .  S
C1602      C1603   1.423       .  A
C1603      C1604   1.408   1_565  A
C1603      C1610   1.508       .  S
C1604      C1605   1.401       .  A
C1604      H1609   1.084       .  S
C1605      C1606   1.409       .  A
C1606      C1607   1.508       .  S
C1607      H1611   1.111       .  S
C1607      H1612   1.109       .  S
C1607      H1613   1.111       .  S
C1610      H1614   1.108       .  S
C1610      H1615   1.110       .  S
C1610      H1616   1.111       .  S
C1617      C1618   1.395       .  A
C1617      C1622   1.404       .  A
C1617      H1624   1.084       .  S
C1618      C1619   1.422       .  A
C1619      C1620   1.405       .  A
C1619      C1626   1.505       .  S
C1620      C1621   1.396       .  A
C1620      H1625   1.084       .  S
C1621      C1622   1.422       .  A
C1622      C1623   1.504       .  S
C1623      H1627   1.110       .  S
C1623      H1628   1.107       .  S
C1623      H1629   1.111       .  S
C1626      H1630   1.108       .  S
C1626      H1631   1.111       .  S
C1626      H1632   1.111       .  S
C1633      C1634   1.404   1_655  A
C1633      C1638   1.412       .  A
C1633      H1640   1.084   1_655  S
C1634      C1635   1.410   1_455  A
C1635      C1636   1.400       .  A
C1635      C1642   1.509   1_655  S
C1636      C1637   1.410       .  A
C1636      H1641   1.083       .  S
C1637      C1638   1.423       .  A
C1638      C1639   1.508       .  S
C1639      H1643   1.111       .  S
C1639      H1644   1.110       .  S
C1639      H1645   1.110       .  S
C1642      H1646   1.110       .  S
C1642      H1647   1.109       .  S
C1642      H1648   1.111   1_455  S
C1649      C1650   1.403       .  A
C1649      C1654   1.412   1_565  A
C1649      H1656   1.084       .  S
C1650      C1651   1.411       .  A
C1651      C1652   1.398       .  A
C1651      C1658   1.511       .  S
C1652      C1653   1.408   1_565  A
C1652      H1657   1.084   1_565  S
C1653      C1654   1.421       .  A
C1654      C1655   1.505       .  S
C1655      H1659   1.111       .  S
C1655      H1660   1.111       .  S
C1655      H1661   1.110       .  S
C1658      H1662   1.109       .  S
C1658      H1663   1.110       .  S
C1658      H1664   1.111       .  S
C1665      C1666   1.410       .  A
C1665      C1670   1.403       .  A
C1665      H1672   1.084       .  S
C1666      C1667   1.418       .  A
C1667      C1668   1.403       .  A
C1667      C1674   1.508       .  S
C1668      C1669   1.404       .  A
C1668      H1673   1.084       .  S
C1669      C1670   1.410       .  A
C1670      C1671   1.506       .  S
C1671      H1675   1.111       .  S
C1671      H1676   1.110       .  S
C1671      H1677   1.110       .  S
C1674      H1678   1.109   1_556  S
C1674      H1679   1.110   1_556  S
C1674      H1680   1.111       .  S
C1681      C1682   1.405       .  A
C1681      C1686   1.402       .  A
C1681      H1688   1.085       .  S
C1682      C1683   1.410       .  A
C1683      C1684   1.400       .  A
C1683      C1690   1.509       .  S
C1684      C1685   1.409       .  A
C1684      H1689   1.084       .  S
C1685      C1686   1.418       .  A
C1686      C1687   1.510       .  S
C1687      H1691   1.111       .  S
C1687      H1692   1.110       .  S
C1687      H1693   1.110       .  S
C1690      H1694   1.110       .  S
C1690      H1695   1.110       .  S
C1690      H1696   1.111       .  S
C1697      C1698   1.398       .  A
C1697      C1702   1.407       .  A
C1697      H1704   1.084   1_556  S
C1698      C1699   1.422       .  A
C1699      C1700   1.406       .  A
C1699      C1706   1.506       .  S
C1700      C1701   1.397       .  A
C1700      H1705   1.084       .  S
C1701      C1702   1.421       .  A
C1702      C1703   1.506   1_556  S
C1703      H1707   1.110       .  S
C1703      H1708   1.109       .  S
C1703      H1709   1.110       .  S
C1706      H1710   1.108       .  S
C1706      H1711   1.110       .  S
C1706      H1712   1.111       .  S
C1713      C1714   1.403   1_655  A
C1713      C1718   1.411       .  A
C1713      H1720   1.084   1_655  S
C1714      C1715   1.412   1_455  A
C1715      C1716   1.402       .  A
C1715      C1722   1.510   1_655  S
C1716      C1717   1.411       .  A
C1716      H1721   1.083       .  S
C1717      C1718   1.424       .  A
C1718      C1719   1.508       .  S
C1719      H1723   1.111       .  S
C1719      H1724   1.110       .  S
C1719      H1725   1.110       .  S
C1722      H1726   1.110       .  S
C1722      H1727   1.109       .  S
C1722      H1728   1.111   1_455  S
C1729      C1730   1.404       .  A
C1729      C1734   1.411       .  A
C1729      H1736   1.083       .  S
C1730      C1731   1.414       .  A
C1731      C1732   1.406       .  A
C1731      C1738   1.510       .  S
C1732      C1733   1.413       .  A
C1732      H1737   1.083       .  S
C1733      C1734   1.423       .  A
C1734      C1735   1.507       .  S
C1735      H1739   1.111       .  S
C1735      H1740   1.110       .  S
C1735      H1741   1.108       .  S
C1738      H1742   1.108       .  S
C1738      H1743   1.111   1_554  S
C1738      H1744   1.111       .  S
C1745      C1746   1.412       .  A
C1745      C1750   1.404       .  A
C1745      H1752   1.084       .  S
C1746      C1747   1.407       .  A
C1747      C1748   1.407       .  A
C1747      C1754   1.505       .  S
C1748      C1749   1.410       .  A
C1748      H1753   1.084       .  S
C1749      C1750   1.405       .  A
C1750      C1751   1.506       .  S
C1751      H1755   1.111       .  S
C1751      H1756   1.110       .  S
C1751      H1757   1.110       .  S
C1754      H1758   1.110       .  S
C1754      H1759   1.110       .  S
C1754      H1760   1.111       .  S
C1761      C1762   1.400   1_655  A
C1761      C1766   1.406       .  A
C1761      H1768   1.084   1_655  S
C1762      C1763   1.411   1_455  A
C1763      C1764   1.404       .  A
C1763      C1770   1.504   1_655  S
C1764      C1765   1.404       .  A
C1764      H1769   1.084       .  S
C1765      C1766   1.423       .  A
C1766      C1767   1.509       .  S
C1767      H1771   1.111       .  S
C1767      H1772   1.109       .  S
C1767      H1773   1.110       .  S
C1770      H1774   1.111       .  S
C1770      H1775   1.106       .  S
C1770      H1776   1.111   1_455  S
C1777      C1778   1.404       .  A
C1777      C1782   1.401       .  A
C1777      H1784   1.084       .  S
C1778      C1779   1.410       .  A
C1779      C1780   1.404       .  A
C1779      C1786   1.508       .  S
C1780      C1781   1.412       .  A
C1780      H1785   1.084       .  S
C1781      C1782   1.419       .  A
C1782      C1783   1.510       .  S
C1783      H1787   1.111       .  S
C1783      H1788   1.110       .  S
C1783      H1789   1.110       .  S
C1786      H1790   1.110       .  S
C1786      H1791   1.110       .  S
C1786      H1792   1.111       .  S
C1793      C1794   1.411       .  A
C1793      C1798   1.402       .  A
C1793      H1800   1.084       .  S
C1794      C1795   1.418       .  A
C1795      C1796   1.403       .  A
C1795      C1802   1.507       .  S
C1796      C1797   1.405       .  A
C1796      H1801   1.084       .  S
C1797      C1798   1.411       .  A
C1798      C1799   1.508       .  S
C1799      H1803   1.111       .  S
C1799      H1804   1.110       .  S
C1799      H1805   1.110       .  S
C1802      H1806   1.111       .  S
C1802      H1807   1.107       .  S
C1802      H1808   1.110       .  S
C1809      C1810   1.409       .  A
C1809      C1814   1.418       .  A
C1809      H1816   1.084       .  S
C1810      C1811   1.416       .  A
C1811      C1812   1.404       .  A
C1811      C1818   1.511       .  S
C1812      C1813   1.412       .  A
C1812      H1817   1.083       .  S
C1813      C1814   1.424       .  A
C1814      C1815   1.506       .  S
C1815      H1819   1.111       .  S
C1815      H1820   1.110       .  S
C1815      H1821   1.109       .  S
C1818      H1822   1.109       .  S
C1818      H1823   1.110       .  S
C1818      H1824   1.111       .  S
C1825      C1826   1.410       .  A
C1825      C1830   1.403       .  A
C1825      H1832   1.084       .  S
C1826      C1827   1.406       .  A
C1827      C1828   1.406       .  A
C1827      C1834   1.506       .  S
C1828      C1829   1.411       .  A
C1828      H1833   1.084       .  S
C1829      C1830   1.405       .  A
C1830      C1831   1.506       .  S
C1831      H1835   1.111       .  S
C1831      H1836   1.110       .  S
C1831      H1837   1.111       .  S
C1834      H1838   1.110       .  S
C1834      H1839   1.110       .  S
C1834      H1840   1.111       .  S
C1841      C1842   1.401       .  A
C1841      C1846   1.408       .  A
C1841      H1848   1.084       .  S
C1842      C1843   1.410       .  A
C1843      C1844   1.405       .  A
C1843      C1850   1.507       .  S
C1844      C1845   1.406       .  A
C1844      H1849   1.084       .  S
C1845      C1846   1.420       .  A
C1846      C1847   1.508       .  S
C1847      H1851   1.111       .  S
C1847      H1852   1.110       .  S
C1847      H1853   1.109       .  S
C1850      H1854   1.110       .  S
C1850      H1855   1.111       .  S
C1850      H1856   1.111       .  S
C1857      C1858   1.411       .  A
C1857      C1862   1.407       .  A
C1857      H1864   1.084       .  S
C1858      C1859   1.405       .  A
C1859      C1860   1.406       .  A
C1859      C1866   1.506       .  S
C1860      C1861   1.411       .  A
C1860      H1865   1.084       .  S
C1861      C1862   1.406       .  A
C1862      C1863   1.505       .  S
C1863      H1867   1.111       .  S
C1863      H1868   1.111       .  S
C1863      H1869   1.110       .  S
C1866      H1870   1.110       .  S
C1866      H1871   1.110       .  S
C1866      H1872   1.111       .  S
C1873      C1874   1.403       .  A
C1873      C1878   1.412       .  A
C1873      H1880   1.084       .  S
C1874      C1875   1.412       .  A
C1875      C1876   1.401       .  A
C1875      C1882   1.510       .  S
C1876      C1877   1.409       .  A
C1876      H1881   1.083       .  S
C1877      C1878   1.423       .  A
C1878      C1879   1.504       .  S
C1879      H1883   1.111       .  S
C1879      H1884   1.110       .  S
C1879      H1885   1.110       .  S
C1882      H1886   1.109       .  S
C1882      H1887   1.110       .  S
C1882      H1888   1.111       .  S
C1889      C1890   1.398       .  A
C1889      C1894   1.404       .  A
C1889      H1896   1.085       .  S
C1890      C1891   1.422       .  A
C1891      C1892   1.405       .  A
C1891      C1898   1.510       .  S
C1892      C1893   1.399       .  A
C1892      H1897   1.084       .  S
C1893      C1894   1.421       .  A
C1894      C1895   1.508       .  S
C1895      H1899   1.110       .  S
C1895      H1900   1.111       .  S
C1895      H1901   1.102       .  S
C1898      H1902   1.109       .  S
C1898      H1903   1.111       .  S
C1898      H1904   1.111       .  S
C1905      C1906   1.401       .  A
C1905      C1910   1.403       .  A
C1905      H1912   1.085       .  S
C1906      C1907   1.415       .  A
C1907      C1908   1.403       .  A
C1907      C1914   1.508       .  S
C1908      C1909   1.404       .  A
C1908      H1913   1.084       .  S
C1909      C1910   1.419       .  A
C1910      C1911   1.509       .  S
C1911      H1915   1.111       .  S
C1911      H1916   1.108       .  S
C1911      H1917   1.110       .  S
C1914      H1918   1.110   1_554  S
C1914      H1919   1.109       .  S
C1914      H1920   1.111       .  S
C1921      C1922   1.412       .  A
C1921      C1926   1.409       .  A
C1921      H1928   1.084       .  S
C1922      C1923   1.407       .  A
C1923      C1924   1.409       .  A
C1923      C1930   1.506       .  S
C1924      C1925   1.412       .  A
C1924      H1929   1.084       .  S
C1925      C1926   1.407       .  A
C1926      C1927   1.505       .  S
C1927      H1931   1.111       .  S
C1927      H1932   1.110       .  S
C1927      H1933   1.110       .  S
C1930      H1934   1.110       .  S
C1930      H1935   1.110       .  S
C1930      H1936   1.111       .  S
C1937      C1938   1.413       .  A
C1937      C1942   1.413       .  A
C1937      H1944   1.084       .  S
C1938      C1939   1.427       .  A
C1939      C1940   1.404       .  A
C1939      C1946   1.511       .  S
C1940      C1941   1.401       .  A
C1940      H1945   1.085       .  S
C1941      C1942   1.414       .  A
C1942      C1943   1.506       .  S
C1943      H1947   1.111       .  S
C1943      H1948   1.111       .  S
C1943      H1949   1.110       .  S
C1946      H1950   1.110       .  S
C1946      H1951   1.110       .  S
C1946      H1952   1.111       .  S
C1953      C1954   1.398       .  A
C1953      C1958   1.402       .  A
C1953      H1960   1.085       .  S
C1954      C1955   1.412       .  A
C1955      C1956   1.409       .  A
C1955      C1962   1.507       .  S
C1956      C1957   1.409       .  A
C1956      H1961   1.084       .  S
C1957      C1958   1.423       .  A
C1958      C1959   1.510       .  S
C1959      H1963   1.111       .  S
C1959      H1964   1.111       .  S
C1959      H1965   1.109       .  S
C1962      H1966   1.110       .  S
C1962      H1967   1.110       .  S
C1962      H1968   1.111       .  S
C1969      C1970   1.408       .  A
C1969      C1974   1.412       .  A
C1969      H1976   1.084       .  S
C1970      C1971   1.424       .  A
C1971      C1972   1.406       .  A
C1971      C1978   1.511       .  S
C1972      C1973   1.407       .  A
C1972      H1977   1.084       .  S
C1973      C1974   1.421       .  A
C1974      C1975   1.508       .  S
C1975      H1979   1.110       .  S
C1975      H1980   1.110       .  S
C1975      H1981   1.111       .  S
C1978      H1982   1.111       .  S
C1978      H1983   1.109       .  S
C1978      H1984   1.111       .  S
C1985      C1986   1.413       .  A
C1985      C1990   1.409       .  A
C1985      H1992   1.084       .  S
C1986      C1987   1.406       .  A
C1987      C1988   1.408       .  A
C1987      C1994   1.505       .  S
C1988      C1989   1.412       .  A
C1988      H1993   1.084       .  S
C1989      C1990   1.407       .  A
C1990      C1991   1.506   1_554  S
C1991      H1995   1.111       .  S
C1991      H1996   1.110       .  S
C1991      H1997   1.110       .  S
C1994      H1998   1.110       .  S
C1994      H1999   1.110       .  S
C1994      H2000   1.111       .  S
C2001      C2002   1.404       .  A
C2001      C2006   1.411   1_556  A
C2001      H2008   1.084       .  S
C2002      C2003   1.413       .  A
C2003      C2004   1.400   1_556  A
C2003      C2010   1.510       .  S
C2004      C2005   1.409       .  A
C2004      H2009   1.083       .  S
C2005      C2006   1.423       .  A
C2006      C2007   1.508       .  S
C2007      H2011   1.111       .  S
C2007      H2012   1.110       .  S
C2007      H2013   1.110   1_554  S
C2010      H2014   1.110   1_556  S
C2010      H2015   1.108       .  S
C2010      H2016   1.111       .  S
C2017      C2018   1.411   1_554  A
C2017      C2022   1.399       .  A
C2017      H2024   1.083   1_554  S
C2018      C2019   1.422       .  A
C2019      C2020   1.412   1_556  A
C2019      C2026   1.506       .  S
C2020      C2021   1.405       .  A
C2020      H2025   1.084       .  S
C2021      C2022   1.413       .  A
C2022      C2023   1.511       .  S
C2023      H2027   1.111       .  S
C2023      H2028   1.109       .  S
C2023      H2029   1.110   1_554  S
C2026      H2030   1.109   1_556  S
C2026      H2031   1.110       .  S
C2026      H2032   1.111       .  S
C2033      C2034   1.407       .  A
C2033      C2038   1.401       .  A
C2033      H2040   1.084       .  S
C2034      C2035   1.417       .  A
C2035      C2036   1.403       .  A
C2035      C2042   1.508       .  S
C2036      C2037   1.403       .  A
C2036      H2041   1.084       .  S
C2037      C2038   1.412       .  A
C2038      C2039   1.509       .  S
C2039      H2043   1.111       .  S
C2039      H2044   1.111       .  S
C2039      H2045   1.110       .  S
C2042      H2046   1.109       .  S
C2042      H2047   1.111       .  S
C2042      H2048   1.110       .  S
C2049      C2050   1.401       .  A
C2049      C2054   1.405       .  A
C2049      H2056   1.084       .  S
C2050      C2051   1.420       .  A
C2051      C2052   1.402       .  A
C2051      C2058   1.510       .  S
C2052      C2053   1.401       .  A
C2052      H2057   1.084       .  S
C2053      C2054   1.421       .  A
C2054      C2055   1.509       .  S
C2055      H2059   1.111       .  S
C2055      H2060   1.109       .  S
C2055      H2061   1.110       .  S
C2058      H2062   1.110       .  S
C2058      H2063   1.109       .  S
C2058      H2064   1.111       .  S
C2065      C2066   1.406       .  A
C2065      C2070   1.411       .  A
C2065      H2072   1.084       .  S
C2066      C2067   1.410       .  A
C2067      C2068   1.407       .  A
C2067      C2074   1.508       .  S
C2068      C2069   1.415       .  A
C2068      H2073   1.083       .  S
C2069      C2070   1.421       .  A
C2070      C2071   1.507       .  S
C2071      H2075   1.111       .  S
C2071      H2076   1.110       .  S
C2071      H2077   1.110       .  S
C2074      H2078   1.110       .  S
C2074      H2079   1.109       .  S
C2074      H2080   1.111       .  S
C2081      C2082   1.412       .  A
C2081      C2086   1.406       .  A
C2081      H2088   1.084       .  S
C2082      C2083   1.406       .  A
C2083      C2084   1.406       .  A
C2083      C2090   1.505       .  S
C2084      C2085   1.410       .  A
C2084      H2089   1.084       .  S
C2085      C2086   1.405       .  A
C2086      C2087   1.506       .  S
C2087      H2091   1.111       .  S
C2087      H2092   1.110       .  S
C2087      H2093   1.111       .  S
C2090      H2094   1.110       .  S
C2090      H2095   1.110       .  S
C2090      H2096   1.111       .  S
C2097      C2098   1.400   1_545  A
C2097      C2102   1.403       .  A
C2097      H2104   1.085   1_545  S
C2098      C2099   1.414   1_565  A
C2099      C2100   1.409       .  A
C2099      C2106   1.504   1_545  S
C2100      C2101   1.409       .  A
C2100      H2105   1.084       .  S
C2101      C2102   1.426       .  A
C2102      C2103   1.511       .  S
C2103      H2107   1.111       .  S
C2103      H2108   1.110       .  S
C2103      H2109   1.110       .  S
C2106      H2110   1.109       .  S
C2106      H2111   1.110       .  S
C2106      H2112   1.111   1_565  S
C2113      C2114   1.399       .  A
C2113      C2118   1.402   1_655  A
C2113      H2120   1.085       .  S
C2114      C2115   1.413       .  A
C2115      C2116   1.411   1_655  A
C2115      C2122   1.506       .  S
C2116      C2117   1.412       .  A
C2116      H2121   1.083       .  S
C2117      C2118   1.426       .  A
C2118      C2119   1.511       .  S
C2119      H2123   1.111       .  S
C2119      H2124   1.110       .  S
C2119      H2125   1.110       .  S
C2122      H2126   1.110       .  S
C2122      H2127   1.110       .  S
C2122      H2128   1.111       .  S
C2129      C2130   1.413       .  A
C2129      C2134   1.404       .  A
C2129      H2136   1.084       .  S
C2130      C2131   1.407       .  A
C2131      C2132   1.406       .  A
C2131      C2138   1.506       .  S
C2132      C2133   1.411       .  A
C2132      H2137   1.084       .  S
C2133      C2134   1.405       .  A
C2134      C2135   1.506       .  S
C2135      H2139   1.111       .  S
C2135      H2140   1.110       .  S
C2135      H2141   1.110       .  S
C2138      H2142   1.110       .  S
C2138      H2143   1.110       .  S
C2138      H2144   1.111       .  S
C2145      C2146   1.408       .  A
C2145      C2150   1.400       .  A
C2145      H2152   1.084       .  S
C2146      C2147   1.420       .  A
C2147      C2148   1.406       .  A
C2147      C2154   1.507       .  S
C2148      C2149   1.401   1_545  A
C2148      H2153   1.085   1_545  S
C2149      C2150   1.409   1_565  A
C2150      C2151   1.509   1_545  S
C2151      H2155   1.111   1_565  S
C2151      H2156   1.109       .  S
C2151      H2157   1.110       .  S
C2154      H2158   1.111       .  S
C2154      H2159   1.110       .  S
C2154      H2160   1.111       .  S
C2161      C2162   1.407   1_455  A
C2161      C2166   1.396       .  A
C2161      H2168   1.084   1_455  S
C2162      C2163   1.421       .  A
C2163      C2164   1.412   1_655  A
C2163      C2170   1.505       .  S
C2164      C2165   1.403       .  A
C2164      H2169   1.084       .  S
C2165      C2166   1.413       .  A
C2166      C2167   1.511       .  S
C2167      H2171   1.111       .  S
C2167      H2172   1.109       .  S
C2167      H2173   1.109       .  S
C2170      H2174   1.108       .  S
C2170      H2175   1.110       .  S
C2170      H2176   1.111       .  S
C2177      C2178   1.409       .  A
C2177      C2182   1.403       .  A
C2177      H2184   1.084       .  S
C2178      C2179   1.417       .  A
C2179      C2180   1.402       .  A
C2179      C2186   1.509       .  S
C2180      C2181   1.407       .  A
C2180      H2185   1.084       .  S
C2181      C2182   1.416       .  A
C2182      C2183   1.510       .  S
C2183      H2187   1.111       .  S
C2183      H2188   1.110       .  S
C2183      H2189   1.111       .  S
C2186      H2190   1.110   1_556  S
C2186      H2191   1.110   1_556  S
C2186      H2192   1.111       .  S
C2193      C2194   1.402       .  A
C2193      C2198   1.401       .  A
C2193      H2200   1.085       .  S
C2194      C2195   1.418       .  A
C2195      C2196   1.403       .  A
C2195      C2202   1.509       .  S
C2196      C2197   1.401       .  A
C2196      H2201   1.085       .  S
C2197      C2198   1.415       .  A
C2198      C2199   1.509       .  S
C2199      H2203   1.111       .  S
C2199      H2204   1.108       .  S
C2199      H2205   1.110       .  S
C2202      H2206   1.110       .  S
C2202      H2207   1.109       .  S
C2202      H2208   1.111       .  S
C2209      C2210   1.411       .  A
C2209      C2214   1.404       .  A
C2209      H2216   1.084       .  S
C2210      C2211   1.407       .  A
C2211      C2212   1.408       .  A
C2211      C2218   1.505   1_556  S
C2212      C2213   1.411       .  A
C2212      H2217   1.084       .  S
C2213      C2214   1.404       .  A
C2214      C2215   1.506       .  S
C2215      H2219   1.111       .  S
C2215      H2220   1.110       .  S
C2215      H2221   1.110       .  S
C2218      H2222   1.110       .  S
C2218      H2223   1.111       .  S
C2218      H2224   1.111       .  S
C2225      C2226   1.410       .  A
C2225      C2230   1.401       .  A
C2225      H2232   1.083       .  S
C2226      C2227   1.424       .  A
C2227      C2228   1.412       .  A
C2227      C2234   1.508       .  S
C2228      C2229   1.403       .  A
C2228      H2233   1.084       .  S
C2229      C2230   1.411       .  A
C2230      C2231   1.509       .  S
C2231      H2235   1.111       .  S
C2231      H2236   1.109       .  S
C2231      H2237   1.111       .  S
C2234      H2238   1.110       .  S
C2234      H2239   1.110       .  S
C2234      H2240   1.111       .  S
C2241      C2242   1.403       .  A
C2241      C2246   1.411   1_655  A
C2241      H2248   1.084       .  S
C2242      C2243   1.411       .  A
C2243      C2244   1.403   1_655  A
C2243      C2250   1.509       .  S
C2244      C2245   1.412       .  A
C2244      H2249   1.083       .  S
C2245      C2246   1.422       .  A
C2246      C2247   1.508       .  S
C2247      H2251   1.111       .  S
C2247      H2252   1.110       .  S
C2247      H2253   1.111       .  S
C2250      H2254   1.110       .  S
C2250      H2255   1.109       .  S
C2250      H2256   1.111   1_655  S
C2257      C2258   1.408       .  A
C2257      C2262   1.401       .  A
C2257      H2264   1.083       .  S
C2258      C2259   1.422       .  A
C2259      C2260   1.416       .  A
C2259      C2266   1.507       .  S
C2260      C2261   1.410       .  A
C2260      H2265   1.084       .  S
C2261      C2262   1.420       .  A
C2262      C2263   1.512       .  S
C2263      H2267   1.111       .  S
C2263      H2268   1.109       .  S
C2263      H2269   1.111       .  S
C2266      H2270   1.110       .  S
C2266      H2271   1.110       .  S
C2266      H2272   1.111       .  S
C2273      C2274   1.411       .  A
C2273      C2278   1.407       .  A
C2273      H2280   1.084       .  S
C2274      C2275   1.406       .  A
C2275      C2276   1.408       .  A
C2275      C2282   1.505       .  S
C2276      C2277   1.410       .  A
C2276      H2281   1.084       .  S
C2277      C2278   1.407       .  A
C2278      C2279   1.506       .  S
C2279      H2283   1.111       .  S
C2279      H2284   1.110       .  S
C2279      H2285   1.110       .  S
C2282      H2286   1.110       .  S
C2282      H2287   1.110       .  S
C2282      H2288   1.111       .  S
C2289      C2290   1.410       .  A
C2289      C2294   1.410       .  A
C2289      H2296   1.084       .  S
C2290      C2291   1.422       .  A
C2291      C2292   1.405       .  A
C2291      C2298   1.509       .  S
C2292      C2293   1.399       .  A
C2292      H2297   1.084       .  S
C2293      C2294   1.412       .  A
C2294      C2295   1.506       .  S
C2295      H2299   1.111       .  S
C2295      H2300   1.110       .  S
C2295      H2301   1.110       .  S
C2298      H2302   1.111       .  S
C2298      H2303   1.109       .  S
C2298      H2304   1.111       .  S
C2305      C2306   1.398       .  A
C2305      C2310   1.401   1_655  A
C2305      H2312   1.084       .  S
C2306      C2307   1.416       .  A
C2307      C2308   1.412   1_655  A
C2307      C2314   1.507       .  S
C2308      C2309   1.410       .  A
C2308      H2313   1.083       .  S
C2309      C2310   1.428       .  A
C2310      C2311   1.512       .  S
C2311      H2315   1.111       .  S
C2311      H2316   1.110       .  S
C2311      H2317   1.111       .  S
C2314      H2318   1.110       .  S
C2314      H2319   1.110       .  S
C2314      H2320   1.111       .  S
C2321      C2322   1.409       .  A
C2321      C2326   1.404       .  A
C2321      H2328   1.084       .  S
C2322      C2323   1.418       .  A
C2323      C2324   1.406       .  A
C2323      C2330   1.509       .  S
C2324      C2325   1.406       .  A
C2324      H2329   1.084       .  S
C2325      C2326   1.411       .  A
C2326      C2327   1.508       .  S
C2327      H2331   1.111       .  S
C2327      H2332   1.110       .  S
C2327      H2333   1.111       .  S
C2330      H2334   1.111       .  S
C2330      H2335   1.110       .  S
C2330      H2336   1.111       .  S
C2337      C2338   1.402       .  A
C2337      C2342   1.402       .  A
C2337      H2344   1.085       .  S
C2338      C2339   1.418       .  A
C2339      C2340   1.404       .  A
C2339      C2346   1.509       .  S
C2340      C2341   1.400       .  A
C2340      H2345   1.085       .  S
C2341      C2342   1.414       .  A
C2342      C2343   1.508       .  S
C2343      H2347   1.111       .  S
C2343      H2348   1.109       .  S
C2343      H2349   1.110       .  S
C2346      H2350   1.110       .  S
C2346      H2351   1.108       .  S
C2346      H2352   1.111       .  S
C2353      C2354   1.414       .  A
C2353      C2358   1.404       .  A
C2353      H2360   1.083       .  S
C2354      C2355   1.423       .  A
C2355      C2356   1.416       .  A
C2355      C2362   1.507       .  S
C2356      C2357   1.408       .  A
C2356      H2361   1.084       .  S
C2357      C2358   1.413       .  A
C2358      C2359   1.510       .  S
C2359      H2363   1.111       .  S
C2359      H2364   1.109       .  S
C2359      H2365   1.111       .  S
C2362      H2366   1.110       .  S
C2362      H2367   1.109       .  S
C2362      H2368   1.111       .  S
