geometry optimzed in LAMMPS
_audit_creation_date              2020-12-01 
_audit_creation_method            'lammps2cif' 
_symmetry_space_group_name_H-M    'P1' 
_symmetry_Int_Tables_number       1 
_symmetry_cell_setting            triclinic 
loop_ 
_symmetry_equiv_pos_as_xyz 
  x,y,z 
_cell_length_a                    35.66140218 
_cell_length_b                    35.682808823692234 
_cell_length_c                    42.43015007960227 
_cell_angle_alpha                 90.57543321896719 
_cell_angle_beta                  90.32653498562016 
_cell_angle_gamma                 89.83176909998961 
loop_ 
_atom_site_label 
_atom_site_type_symbol 
_atom_site_fract_x 
_atom_site_fract_y 
_atom_site_fract_z 
_atom_site_charge 
O1          O  0.60275416  0.67908086  0.44072635    -0.82900
C2          C  0.55999089  0.73134981  0.06112243     0.96400
O3          O  0.59375478  0.72691470  0.05242593    -0.72100
O4          O  0.61551836  0.66184655  0.03058261    -0.75600
Al5        Al  0.61584706  0.71027935  0.01297335     1.49000
C6          C  0.61250432  0.63171509  0.01534382     0.91700
O7          O  0.52393687  0.64906683  0.49433842    -0.81900
O8          O  0.53240853  0.74901061  0.45377823    -0.75400
Al9        Al  0.56371874  0.66565796  0.46841664     1.90100
O10         O  0.49500572  0.70334682  0.49572850    -0.74500
O11         O  0.56699004  0.78252399  0.50349558    -0.74300
O12         O  0.53360627  0.73286855  0.04142139    -0.80000
O13         O  0.62368639  0.75962651  0.49914512    -0.78200
O14         O  0.57197550  0.70529894  0.49322510    -1.14300
O15         O  0.64545782  0.69358397  0.47664177    -0.73500
C16         C  0.63666071  0.68440238  0.44845413     0.97200
C17         C  0.49459055  0.66818987  0.49944923     0.93600
Al18       Al  0.53534163  0.73921489  0.49801147     1.55600
O19         O  0.59581127  0.63119087  0.48927420    -0.78200
C20         C  0.60197942  0.78712641  0.50251905     0.97700
C21         C  0.52258944  0.72334282  0.43472800     0.92600
O22         O  0.52954409  0.68950766  0.44057429    -0.83500
O23         O  0.71438558  0.58127897  0.35614441    -0.82900
C24         C  0.76093984  0.53955974  0.23347056     0.96400
O25         O  0.75781325  0.57332087  0.24319934    -0.72100
O26         O  0.69224088  0.59299445  0.26610458    -0.75600
Al27       Al  0.74111874  0.59485480  0.28357768     1.49000
C28         C  0.66263648  0.59071728  0.28180672     0.91700
O29         O  0.68120218  0.50319250  0.30294221    -0.81900
O30         O  0.78418071  0.51150511  0.33990621    -0.75400
Al31       Al  0.69934286  0.54269083  0.32840596     1.90100
O32         O  0.73510912  0.47364792  0.29935631    -0.74500
O33         O  0.81356820  0.54730744  0.28835046    -0.74300
O34         O  0.76109289  0.51277726  0.25253880    -0.80000
O35         O  0.79071483  0.60311264  0.29804913    -0.78200
O36         O  0.73729983  0.55090426  0.30251898    -1.14300
O37         O  0.72401338  0.62441620  0.32042039    -0.73500
C38         C  0.71659107  0.61531381  0.34871363     0.97200
C39         C  0.69952179  0.47344574  0.29781499     0.93600
Al40       Al  0.77091055  0.51451734  0.29586224     1.55600
O41         O  0.66323794  0.57480861  0.30821563    -0.78200
C42         C  0.81793191  0.58245473  0.29053119     0.97700
C43         C  0.75983402  0.50178205  0.35987938     0.92600
O44         O  0.72553491  0.50869086  0.35518777    -0.83500
O45         O  0.53330299  0.28588726  0.18635732    -0.82900
C46         C  0.56433246  0.23983135  0.30514265     0.96400
O47         O  0.53747428  0.24034627  0.28579298    -0.72100
O48         O  0.49839593  0.27086715  0.24103303    -0.75600
Al49       Al  0.53840662  0.23477178  0.24208498     1.49000
C50         C  0.49780339  0.30597615  0.24516616     0.91700
O51         O  0.59926059  0.34200217  0.23746039    -0.81900
O52         O  0.64895078  0.27844656  0.22022376    -0.75400
Al53       Al  0.56712686  0.30878536  0.21502196     1.90100
O54         O  0.62140603  0.30910052  0.27626558    -0.74500
O55         O  0.62606543  0.21240847  0.23994441    -0.74300
O56         O  0.59809727  0.24349366  0.29599149    -0.80000
O57         O  0.56937518  0.19095313  0.24620114    -0.78200
O58         O  0.57542954  0.26818445  0.23801141    -1.14300
O59         O  0.53474821  0.22604038  0.19752565    -0.73500
C60         C  0.52536226  0.25247012  0.17938303     0.97200
C61         C  0.61714840  0.34008386  0.26294569     0.93600
Al62       Al  0.61982313  0.26127256  0.25651440     1.55600
O63         O  0.52736626  0.32491554  0.24154551    -0.78200
C64         C  0.60411252  0.18545464  0.24381529     0.97700
C65         C  0.63923376  0.28857723  0.19262371     0.92600
O66         O  0.60547037  0.29632158  0.18645093    -0.83500
O67         O  0.72226346  0.46495179  0.10411778    -0.82900
C68         C  0.76316267  0.43678029  0.48242513     0.96400
O69         O  0.76272484  0.46297490  0.50251447    -0.72100
O70         O  0.73298001  0.50016405  0.04938466    -0.75600
Al71       Al  0.77020868  0.46058652  0.04614361     1.49000
C72         C  0.69748542  0.49941741  0.04682402     0.91700
O73         O  0.66394644  0.39695917  0.05504036    -0.81900
O74         O  0.72563833  0.34937196  0.06612356    -0.75400
Al75       Al  0.69849101  0.43017606  0.07609330     1.90100
O76         O  0.69322406  0.38095605  0.01224402    -0.74500
O77         O  0.79186274  0.37237713  0.04464811    -0.74300
O78         O  0.75901930  0.40288387  0.49085369    -0.80000
O79         O  0.81389599  0.42906030  0.03907640    -0.78200
O80         O  0.73725844  0.42336920  0.05063724    -1.14300
O81         O  0.78146188  0.46347296  0.09074255    -0.73500
C82         C  0.75601590  0.47291314  0.11004675     0.97200
C83         C  0.66366350  0.38145883  0.02821590     0.93600
Al84       Al  0.74227536  0.37998345  0.03018984     1.55600
O85         O  0.67974491  0.46928079  0.05103651    -0.78200
C86         C  0.81862771  0.39392944  0.03857484     0.97700
C87         C  0.71833493  0.35801383  0.09474298     0.92600
O88         O  0.71464336  0.39185038  0.10305511    -0.83500
O89         O  0.41767530  0.28764669  0.43427945    -0.82900
C90         C  0.46525652  0.24326731  0.05491847     0.96400
O91         O  0.43170118  0.24982688  0.04684626    -0.72100
O92         O  0.41030490  0.31246907  0.02392252    -0.75600
Al93       Al  0.40787800  0.26321353  0.00807470     1.49000
C94         C  0.41057710  0.34117447  0.00731838     0.91700
O95         O  0.49738054  0.32273719  0.48559712    -0.81900
O96         O  0.48898562  0.22025065  0.44696940    -0.75400
Al97       Al  0.45734664  0.30398209  0.46062386     1.90100
O98         O  0.52749846  0.26869638  0.48824757    -0.74500
O99         O  0.45462328  0.18885574  0.49817838    -0.74300
O100        O  0.49078703  0.23957227  0.03487286    -0.80000
O101        O  0.39815103  0.21305581  0.49714582    -0.78200
O102        O  0.45050730  0.26593442  0.48678486    -1.14300
O103        O  0.37667999  0.27715423  0.47203775    -0.73500
C104        C  0.38413379  0.28352489  0.44325211     0.97200
C105        C  0.52691754  0.30424224  0.49133005     0.93600
Al106      Al  0.48715780  0.23201340  0.49137793     1.55600
O107        O  0.42506118  0.33997742  0.48043978    -0.78200
C108        C  0.41940305  0.18528836  0.50055756     0.97700
C109        C  0.49868444  0.24510993  0.42758500     0.92600
O110        O  0.49139648  0.27907530  0.43311695    -0.83500
O111        O  0.30986993  0.38863893  0.35566111    -0.82900
C112        C  0.26002528  0.43353918  0.23514671     0.96400
O113        O  0.26511116  0.39987287  0.24356080    -0.72100
O114        O  0.33090832  0.37890987  0.26508997    -0.75600
Al115      Al  0.28200258  0.37739097  0.28265385     1.49000
C116        C  0.36064818  0.38081912  0.28105367     0.91700
O117        O  0.34420528  0.46598401  0.30361653    -0.81900
O118        O  0.24363928  0.46251497  0.34379853    -0.75400
Al119      Al  0.32577132  0.42718731  0.32889432     1.90100
O120        O  0.29080481  0.49729234  0.30101281    -0.74500
O121        O  0.20965878  0.42610093  0.29314359    -0.74300
O122        O  0.25920608  0.45980693  0.25509397    -0.80000
O123        O  0.23284452  0.36933023  0.29669315    -0.78200
O124        O  0.28666396  0.42068212  0.30339116    -1.14300
O125        O  0.29856258  0.34684572  0.31818725    -0.73500
C126        C  0.30595641  0.35492936  0.34685215     0.97200
C127        C  0.32613931  0.49555534  0.29762176     0.93600
Al128      Al  0.25340221  0.45802777  0.29893605     1.55600
O129        O  0.36012662  0.39456063  0.30834837    -0.78200
C130        C  0.20537598  0.39085967  0.29258441     0.97700
C131        C  0.26995133  0.47171603  0.36259605     0.92600
O132        O  0.30292411  0.46173899  0.35663046    -0.83500
O133        O  0.48719784  0.68847721  0.18721798    -0.82900
C134        C  0.46386548  0.72626670  0.30983802     0.96400
O135        O  0.48908442  0.72701274  0.28938993    -0.72100
O136        O  0.52439885  0.69832807  0.24176906    -0.75600
Al137      Al  0.48448871  0.73509474  0.24629206     1.49000
C138        C  0.52389053  0.66284690  0.24443320     0.91700
O139        O  0.42152613  0.62836069  0.23491336    -0.81900
O140        O  0.37345136  0.68979521  0.22784244    -0.75400
Al141      Al  0.45376246  0.66369579  0.21478274     1.90100
O142        O  0.40936228  0.65624973  0.27925975    -0.74500
O143        O  0.39569589  0.75502725  0.25174477    -0.74300
O144        O  0.42988859  0.72081748  0.30213745    -0.80000
O145        O  0.45252001  0.77823266  0.25396310    -0.78200
O146        O  0.44769188  0.70178178  0.24159179    -1.14300
O147        O  0.48493831  0.74718702  0.20250774    -0.73500
C148        C  0.49422019  0.72253718  0.18247381     0.97200
C149        C  0.40796468  0.62746494  0.26221540     0.93600
Al150      Al  0.40557011  0.70529532  0.26339864     1.55600
O151        O  0.49425795  0.64452877  0.23876114    -0.78200
C152        C  0.41734599  0.78252735  0.25500540     0.97700
C153        C  0.38052241  0.68415104  0.19873244     0.92600
O154        O  0.41389483  0.68050392  0.18928671    -0.83500
O155        O  0.30217323  0.50396772  0.10526350    -0.82900
C156        C  0.26014357  0.53763900  0.48573855     0.96400
O157        O  0.25990838  0.51029157  0.50423771    -0.72100
O158        O  0.28980304  0.47050659  0.04909201    -0.75600
Al159      Al  0.25284378  0.51044745  0.04783855     1.49000
C160        C  0.32509069  0.47128389  0.04554419     0.91700
O161        O  0.35985030  0.57232106  0.05872738    -0.81900
O162        O  0.29533465  0.62040680  0.07385027    -0.75400
Al163      Al  0.32560553  0.53917077  0.07857220     1.90100
O164        O  0.32849894  0.59413245  0.01868717    -0.74500
O165        O  0.23012715  0.59810815  0.05089270    -0.74300
O166        O  0.26402988  0.57111672  0.49581710    -0.80000
O167        O  0.20875919  0.54190306  0.04170420    -0.78200
O168        O  0.28593246  0.54756406  0.05409640    -1.14300
O169        O  0.24258022  0.50558242  0.09246060    -0.73500
C170        C  0.26866159  0.49569203  0.11119908     0.97200
C171        C  0.35883699  0.59025131  0.03343230     0.93600
Al172      Al  0.27979557  0.59216646  0.03634032     1.55600
O173        O  0.34314096  0.50098371  0.05132998    -0.78200
C174        C  0.20374099  0.57698009  0.04260555     0.97700
C175        C  0.30413228  0.61031092  0.10163716     0.92600
O176        O  0.31112692  0.57644832  0.10764411    -0.83500
O177        O  0.09861414  0.18430673  0.17242486    -0.82900
C178        C  0.05933737  0.23169840  0.29515520     0.96400
O179        O  0.09274111  0.22781534  0.28545100    -0.72100
O180        O  0.11028058  0.16170610  0.26218614    -0.75600
Al181      Al  0.11314083  0.21062499  0.24544261     1.49000
C182        C  0.10715976  0.13225982  0.24585880     0.91700
O183        O  0.02048568  0.15220313  0.22481899    -0.81900
O184        O  0.02952347  0.25484575  0.18935270    -0.75400
Al185      Al  0.05980167  0.16984085  0.19963560     1.90100
O186        O  0.99176676  0.20641626  0.22941349    -0.74500
O187        O  0.06649068  0.28371633  0.24093422    -0.74300
O188        O  0.03211289  0.23199311  0.27616903    -0.80000
O189        O  0.12215435  0.26018094  0.23180824    -0.78200
O190        O  0.06892902  0.20760877  0.22609724    -1.14300
O191        O  0.14183772  0.19302295  0.20901041    -0.73500
C192        C  0.13270840  0.18560317  0.18059223     0.97200
C193        C  0.99134339  0.17091883  0.23111389     0.93600
Al194      Al  0.03310273  0.24163931  0.23306339     1.55600
O195        O  0.09152920  0.13347434  0.21924109    -0.78200
C196        C  0.10171385  0.28749992  0.23964734     0.97700
C197        C  0.01938831  0.23073557  0.16894653     0.92600
O198        O  0.02572206  0.19635708  0.17315990    -0.83500
O199        O  0.20643506  0.07251963  0.09098996    -0.82900
C200        C  0.25548533  0.03336361  0.46901756     0.96400
O201        O  0.25255593  0.06680445  0.47921647    -0.72100
O202        O  0.18706015  0.08598697  0.00104792    -0.75600
Al203      Al  0.23540510  0.08720735  0.01920767     1.49000
C204        C  0.15719972  0.08420893  0.01636503     0.91700
O205        O  0.17480017  0.99514048  0.03591145    -0.81900
O206        O  0.27662398  0.00287604  0.07474292    -0.75400
Al207      Al  0.19224964  0.03421225  0.06238148     1.90100
O208        O  0.22898528  0.96604270  0.03268682    -0.74500
O209        O  0.30809556  0.03937210  0.02545707    -0.74300
O210        O  0.25643747  0.00604302  0.48744741    -0.80000
O211        O  0.28438129  0.09500007  0.03450445    -0.78200
O212        O  0.23103422  0.04293492  0.03739628    -1.14300
O213        O  0.21785949  0.11583654  0.05575215    -0.73500
C214        C  0.20932622  0.10660327  0.08368089     0.97200
C215        C  0.19347445  0.96565345  0.03050466     0.93600
Al216      Al  0.26489526  0.00672051  0.03081110     1.55600
O217        O  0.15688577  0.06701316  0.04217236    -0.78200
C218        C  0.31223926  0.07436211  0.02896463     0.97700
C219        C  0.25191652  0.99318032  0.09430669     0.92600
O220        O  0.21763850  0.99957099  0.08912234    -0.83500
O221        O  0.03207735  0.77351865  0.41732905    -0.82900
C222        C  0.06045841  0.73094915  0.03827804     0.96400
O223        O  0.03412486  0.73512542  0.01891732    -0.72100
O224        O  0.99576215  0.76380105  0.97317353    -0.75600
Al225      Al  0.03592680  0.72660676  0.47592609     1.49000
C226        C  0.99685132  0.79928107  0.47617195     0.91700
O227        O  0.09849925  0.83197302  0.46745520    -0.81900
O228        O  0.14733440  0.77145178  0.45577094    -0.75400
Al229      Al  0.06621511  0.79791922  0.44545681     1.90100
O230        O  0.11524654  0.80153022  0.00977585    -0.74500
O231        O  0.12405771  0.70437588  0.97439624    -0.74300
O232        O  0.09441908  0.73441978  0.02972230    -0.80000
O233        O  0.06782143  0.68275315  0.48308065    -0.78200
O234        O  0.07308961  0.75919652  0.47083496    -1.14300
O235        O  0.03313018  0.71463771  0.43196829    -0.73500
C236        C  0.02468845  0.73949323  0.41210786     0.97200
C237        C  0.11332906  0.83151661  0.99446470     0.93600
Al238      Al  0.11670351  0.75331478  0.99076574     1.55600
O239        O  0.02640802  0.81710463  0.47017320    -0.78200
C240        C  0.10299340  0.67773449  0.48187176     0.97700
C241        C  0.13937780  0.77897125  0.42722136     0.92600
O242        O  0.10560737  0.78219834  0.41846502    -0.83500
O243        O  0.21300695  0.96505740  0.33859498    -0.82900
C244        C  0.25527692  0.93400299  0.21831112     0.96400
O245        O  0.25424575  0.96081300  0.23771574    -0.72100
O246        O  0.22392284  0.99938753  0.28309373    -0.75600
Al247      Al  0.26145517  0.96009337  0.28113423     1.49000
C248        C  0.18845431  0.99843597  0.28050910     0.91700
O249        O  0.15607288  0.89620254  0.29065080    -0.81900
O250        O  0.21857759  0.84905129  0.30331831    -0.75400
Al251      Al  0.18974601  0.92987998  0.31126555     1.90100
O252        O  0.18614270  0.87924762  0.24832116    -0.74500
O253        O  0.28368056  0.87223355  0.28220674    -0.74300
O254        O  0.25205182  0.90037528  0.22749512    -0.80000
O255        O  0.30567733  0.92896255  0.27624015    -0.78200
O256        O  0.22890165  0.92274867  0.28629876    -1.14300
O257        O  0.27218288  0.96425964  0.32523659    -0.73500
C258        C  0.24670684  0.97305359  0.34452438     0.97200
C259        C  0.15639276  0.88060603  0.26398477     0.93600
Al260      Al  0.23475922  0.87885407  0.26691027     1.55600
O261        O  0.17071996  0.96843745  0.28535446    -0.78200
C262        C  0.31082637  0.89407377  0.27866008     0.97700
C263        C  0.21190632  0.85838778  0.33187020     0.92600
O264        O  0.20591716  0.89226838  0.33909628    -0.83500
O265        O  0.91617433  0.78009147  0.16485135    -0.82900
C266        C  0.96767241  0.74162316  0.28646262     0.96400
O267        O  0.93318886  0.74414031  0.27875268    -0.72100
O268        O  0.91183914  0.80937360  0.25473938    -0.75600
Al269      Al  0.90866404  0.75967915  0.23926211     1.49000
C270        C  0.91126697  0.83755927  0.23716705     0.91700
O271        O  0.99674389  0.82034814  0.21120143    -0.81900
O272        O  0.98874869  0.71416592  0.18092207    -0.75400
Al273      Al  0.95624720  0.79887298  0.18916045     1.90100
O274        O  0.02739256  0.76709058  0.21720880    -0.74500
O275        O  0.95645493  0.68792218  0.23492085    -0.74300
O276        O  0.99249534  0.74437418  0.26592724    -0.80000
O277        O  0.89985920  0.70957786  0.22662140    -0.78200
O278        O  0.95086004  0.76298050  0.21749261    -1.14300
O279        O  0.87631160  0.77483712  0.20402835    -0.73500
C280        C  0.88293631  0.77905888  0.17478925     0.97200
C281        C  0.02632669  0.80268137  0.21784627     0.93600
Al282      Al  0.98805879  0.73076772  0.22385768     1.55600
O283        O  0.92435359  0.83556700  0.20958644    -0.78200
C284        C  0.92118941  0.68325241  0.23477808     0.97700
C285        C  0.99772738  0.73689796  0.15961103     0.92600
O286        O  0.98963164  0.77129669  0.16213043    -0.83500
O287        O  0.81415684  0.89515177  0.08967014    -0.82900
C288        C  0.76660216  0.93797328  0.46836256     0.96400
O289        O  0.77136338  0.90439243  0.47717611    -0.72100
O290        O  0.83647405  0.88283705  0.99942664    -0.75600
Al291      Al  0.78729674  0.88230086  0.01652890     1.49000
C292        C  0.86589369  0.88336383  0.01579947     0.91700
O293        O  0.85023574  0.97115351  0.03742272    -0.81900
O294        O  0.74813229  0.96686298  0.07526898    -0.75400
Al295      Al  0.83090638  0.93273869  0.06266692     1.90100
O296        O  0.79694166  0.00225969  0.03413652    -0.74500
O297        O  0.71538128  0.93201966  0.02513618    -0.74300
O298        O  0.76680011  0.96467261  0.48785065    -0.80000
O299        O  0.73757321  0.87500975  0.02970199    -0.78200
O300        O  0.79222584  0.92586804  0.03665195    -1.14300
O301        O  0.80264645  0.85241402  0.05302333    -0.73500
C302        C  0.80909589  0.86137340  0.08173763     0.97200
C303        C  0.83246325  0.00101477  0.03176241     0.93600
Al304      Al  0.75943185  0.96319098  0.03126074     1.55600
O305        O  0.86546953  0.89851525  0.04274324    -0.78200
C306        C  0.71038018  0.89697906  0.02581892     0.97700
C307        C  0.77308566  0.97625648  0.09505734     0.92600
O308        O  0.80703570  0.96844544  0.08988216    -0.83500
O309        O  0.99118874  0.19379208  0.42329615    -0.82900
C310        C  0.96023945  0.23533150  0.04447583     0.96400
O311        O  0.98748990  0.23227479  0.02589547    -0.72100
O312        O  0.02612858  0.20310832  0.97958537    -0.75600
Al313      Al  0.98691528  0.24085756  0.48250188     1.49000
C314        C  0.02420728  0.16773806  0.48216900     0.91700
O315        O  0.92245484  0.13663720  0.47056083    -0.81900
O316        O  0.87534293  0.19768559  0.45862598    -0.75400
Al317      Al  0.95588244  0.17009430  0.45007644     1.90100
O318        O  0.90575442  0.16748085  0.01295196    -0.74500
O319        O  0.89945015  0.26437146  0.97846833    -0.74300
O320        O  0.92669526  0.23387542  0.03425935    -0.80000
O321        O  0.95588470  0.28507414  0.48907861    -0.78200
O322        O  0.94923262  0.20897560  0.47577927    -1.14300
O323        O  0.99089211  0.25270574  0.43876136    -0.73500
C324        C  0.99939061  0.22766190  0.41871429     0.97200
C325        C  0.90716351  0.13742895  0.99726308     0.93600
Al326      Al  0.90536422  0.21557376  0.99450830     1.55600
O327        O  0.99423022  0.15054849  0.47586194    -0.78200
C328        C  0.92106123  0.29088466  0.48580927     0.97700
C329        C  0.88378701  0.18958978  0.43026441     0.92600
O330        O  0.91768257  0.18633999  0.42221242    -0.83500
O331        O  0.80345347  0.00025131  0.33800809    -0.82900
C332        C  0.76216536  0.03762008  0.21895497     0.96400
O333        O  0.76315610  0.00945238  0.23655913    -0.72100
O334        O  0.79228134  0.96811351  0.28064898    -0.75600
Al335      Al  0.75519227  0.00781053  0.27997613     1.49000
C336        C  0.82760234  0.96877537  0.27759249     0.91700
O337        O  0.86090979  0.07010812  0.29271333    -0.81900
O338        O  0.79761650  0.11734422  0.30846133    -0.75400
Al339      Al  0.82722973  0.03613212  0.31221505     1.90100
O340        O  0.82903227  0.09209566  0.25294386    -0.74500
O341        O  0.73206641  0.09475172  0.28712951    -0.74300
O342        O  0.76399147  0.07070019  0.23026813    -0.80000
O343        O  0.71104470  0.03899420  0.27506689    -0.78200
O344        O  0.78774607  0.04486452  0.28764513    -1.14300
O345        O  0.74413246  0.00181153  0.32385623    -0.73500
C346        C  0.76963020  0.99233252  0.34311135     0.97200
C347        C  0.85951606  0.08839031  0.26754855     0.93600
Al348      Al  0.78097632  0.08994188  0.27111529     1.55600
O349        O  0.84552153  0.99828476  0.28448994    -0.78200
C350        C  0.70549935  0.07360963  0.27933254     0.97700
C351        C  0.80671371  0.10722591  0.33610326     0.92600
O352        O  0.81250553  0.07308968  0.34209359    -0.83500
C353        C  0.82888582  0.15032226  0.41597464    -0.10300
C354        C  0.85454328  0.17808769  0.40716859     0.05900
C355        C  0.85718176  0.18743525  0.37504852    -0.04100
C356        C  0.83759760  0.16654036  0.35221669    -0.08500
C357        C  0.81576230  0.13562090  0.36075485     0.05000
C358        C  0.80975917  0.12893756  0.39308390    -0.03500
Br359      Br  0.77726571  0.08975158  0.40713067    -0.03200
H360        H  0.82623468  0.14289530  0.44056638     0.08900
H361        H  0.84221818  0.17244448  0.32753871     0.06900
Br362      Br  0.88899123  0.22695333  0.36095506    -0.03700
C363        C  0.83697824  0.07018587  0.03185187    -0.10300
C364        C  0.85312224  0.03544686  0.02390074     0.05900
C365        C  0.88827955  0.03470190  0.00870231    -0.04100
C366        C  0.90598346  0.06835673  0.00136053    -0.08500
C367        C  0.88954143  0.10303980  0.00897490     0.05000
C368        C  0.85472714  0.10377546  0.02457245    -0.03500
Br369      Br  0.82808589  0.14930001  0.03416694    -0.03200
H370        H  0.81009106  0.07130994  0.04359845     0.08900
H371        H  0.93251204  0.06743185  0.98903255     0.06900
Br372      Br  0.91263622  0.98919286  0.99522042    -0.03700
C373        C  0.73589781  0.98712515  0.39370151    -0.10300
C374        C  0.76157063  0.97201928  0.37223602     0.05900
C375        C  0.78467550  0.94177039  0.38150830    -0.04100
C376        C  0.78383656  0.92908216  0.41247307    -0.08500
C377        C  0.76107898  0.94679587  0.43480984     0.05000
C378        C  0.73568712  0.97499728  0.42496288    -0.03500
Br379      Br  0.70049006  0.99838223  0.45312195    -0.03200
H380        H  0.71794862  0.01022612  0.38681185     0.08900
H381        H  0.80284780  0.90696306  0.41958075     0.06900
Br382      Br  0.81976955  0.91813798  0.35346636    -0.03700
C383        C  0.79010701  0.02522455  0.13420149    -0.10300
C384        C  0.76427094  0.99783281  0.12404989     0.05900
C385        C  0.73366555  0.98933533  0.14349740    -0.04100
C386        C  0.73166154  0.00529866  0.17377205    -0.08500
C387        C  0.75921437  0.03045295  0.18476215     0.05000
C388        C  0.78767271  0.04169733  0.16415530    -0.03500
Br389      Br  0.82660540  0.07566864  0.17695681    -0.03200
H390        H  0.81345634  0.03259288  0.11925884     0.08900
H391        H  0.70962702  0.99642989  0.18949663     0.06900
Br392      Br  0.69634320  0.95322609  0.13148540    -0.03700
C393        C  0.83594804  0.80004622  0.09744457    -0.10300
C394        C  0.81585893  0.83244545  0.10601312     0.05900
C395        C  0.81037069  0.84029811  0.13844694    -0.04100
C396        C  0.82841423  0.81848550  0.16125309    -0.08500
C397        C  0.85281256  0.78940251  0.15238803     0.05000
C398        C  0.85475301  0.77885324  0.12028100    -0.03500
Br399      Br  0.88572587  0.73796554  0.10618715    -0.03200
H400        H  0.84033254  0.79334966  0.07277387     0.08900
H401        H  0.82661159  0.82701183  0.18579300     0.06900
Br402      Br  0.78155532  0.88253426  0.15318364    -0.03700
C403        C  0.85330461  0.86765121  0.25599712    -0.10300
C404        C  0.89103777  0.87141021  0.24770037     0.05900
C405        C  0.90758810  0.90704201  0.24857365    -0.04100
C406        C  0.88643526  0.93818310  0.25832969    -0.08500
C407        C  0.84838360  0.93472116  0.26675336     0.05000
C408        C  0.83174586  0.89867753  0.26504400    -0.03500
Br409      Br  0.78013070  0.88856898  0.27465974    -0.03200
H410        H  0.84024910  0.84026631  0.25484630     0.08900
H411        H  0.89993135  0.96528373  0.25919469     0.06900
Br412      Br  0.95927989  0.91416981  0.23799938    -0.03700
C413        C  0.11067068  0.86702016  0.22076294    -0.10300
C414        C  0.12230119  0.86196609  0.25211983     0.05900
C415        C  0.10139785  0.83821683  0.27175515    -0.04100
C416        C  0.07112540  0.81831569  0.25948030    -0.08500
C417        C  0.05944677  0.82341249  0.22840268     0.05000
C418        C  0.07852463  0.84892570  0.20913116    -0.03500
Br419      Br  0.06178347  0.85991686  0.16716693    -0.03200
H420        H  0.12602887  0.88574766  0.20561721     0.08900
H421        H  0.05582038  0.79949996  0.27462368     0.06900
Br422      Br  0.11213507  0.83137573  0.31555997    -0.03700
C423        C  0.94274944  0.84108346  0.46397720    -0.10300
C424        C  0.96320474  0.82037945  0.48620852     0.05900
C425        C  0.95237960  0.82192250  0.01804354    -0.04100
C426        C  0.92125836  0.84335199  0.02709799    -0.08500
C427        C  0.90008911  0.86341528  0.00486293     0.05000
C428        C  0.91118985  0.86220968  0.47294405    -0.03500
Br429      Br  0.88564318  0.89028303  0.44096919    -0.03200
H430        H  0.95138964  0.84082966  0.43953637     0.08900
H431        H  0.91315356  0.84376839  0.05167987     0.06900
Br432      Br  0.97982048  0.79639089  0.05032517    -0.03700
C433        C  0.19319557  0.81900104  0.41258308    -0.10300
C434        C  0.16906848  0.78938893  0.40450370     0.05900
C435        C  0.16828464  0.77665547  0.37291923    -0.04100
C436        C  0.18763024  0.79635881  0.34954300    -0.08500
C437        C  0.20640991  0.82989403  0.35695926     0.05000
C438        C  0.21174349  0.83926289  0.38917421    -0.03500
Br439      Br  0.24241141  0.88078001  0.40243619    -0.03200
H440        H  0.19489511  0.82870469  0.43683583     0.08900
H441        H  0.18437443  0.78771674  0.32513860     0.06900
Br442      Br  0.13879684  0.73419611  0.36035251    -0.03700
C443        C  0.00111089  0.70463095  0.10792890    -0.10300
C444        C  0.01917780  0.72481956  0.13184593     0.05900
C445        C  0.05527283  0.73943758  0.12634848    -0.04100
C446        C  0.07032776  0.73856268  0.09600241    -0.08500
C447        C  0.05005634  0.72247871  0.07107605     0.05000
C448        C  0.01661847  0.70266797  0.07778101    -0.03500
Br449      Br  0.99023990  0.67310004  0.04677801    -0.03200
H450        H  0.97389293  0.69229732  0.11216140     0.08900
H451        H  0.09668938  0.75252366  0.09158858     0.06900
Br452      Br  0.08489271  0.76143824  0.15933034    -0.03700
C453        C  0.02883767  0.71775352  0.35741111    -0.10300
C454        C  0.00636677  0.73027323  0.38207454     0.05900
C455        C  0.96954909  0.74256304  0.37568957    -0.04100
C456        C  0.95648578  0.74427267  0.34453416    -0.08500
C457        C  0.98011775  0.73473353  0.31935884     0.05000
C458        C  0.01641913  0.71999442  0.32626265    -0.03500
Br459      Br  0.05198421  0.70322904  0.29514781    -0.03200
H460        H  0.05721795  0.70848034  0.36227294     0.08900
H461        H  0.92852874  0.75494155  0.33997306     0.06900
Br462      Br  0.93691480  0.75908216  0.40878791    -0.03700
C463        C  0.16839535  0.86259984  0.01844489    -0.10300
C464        C  0.13176488  0.86556671  0.00659919     0.05900
C465        C  0.11532654  0.90120958  0.00347957    -0.04100
C466        C  0.13595008  0.93319943  0.01143279    -0.08500
C467        C  0.17319566  0.93055260  0.02241513     0.05000
C468        C  0.18925765  0.89452152  0.02625174    -0.03500
Br469      Br  0.23892550  0.88606436  0.04255245    -0.03200
H470        H  0.18133980  0.83523120  0.02071508     0.08900
H471        H  0.12274154  0.96036256  0.00871995     0.06900
Br472      Br  0.06437314  0.90768418  0.98963669    -0.03700
C473        C  0.09192300  0.15462310  0.97680200    -0.10300
C474        C  0.05774665  0.14607057  0.49096966     0.05900
C475        C  0.05613337  0.11662792  0.51274359    -0.04100
C476        C  0.08846366  0.09590041  0.51958707    -0.08500
C477        C  0.12299905  0.10422615  0.00539732     0.05000
C478        C  0.12443693  0.13434528  0.98380848    -0.03500
Br479      Br  0.16967471  0.15231543  0.96477529    -0.03200
H480        H  0.09337786  0.17745985  0.96020227     0.08900
H481        H  0.08670452  0.07377244  0.53680298     0.06900
Br482      Br  0.01134601  0.10580153  0.53587442    -0.03700
C483        C  0.28693583  0.00288316  0.42360423    -0.10300
C484        C  0.25726354  0.02505234  0.43514152     0.05900
C485        C  0.22660204  0.03284751  0.41539213    -0.04100
C486        C  0.22550266  0.01773439  0.38507594    -0.08500
C487        C  0.25422362  0.99408021  0.37392318     0.05000
C488        C  0.28601575  0.98792406  0.39297752    -0.03500
Br489      Br  0.32692235  0.95649511  0.37990507    -0.03200
H490        H  0.31003062  0.99553486  0.43902616     0.08900
H491        H  0.20078485  0.02278358  0.37072902     0.06900
Br492      Br  0.18255843  0.05832807  0.42995091    -0.03700
C493        C  0.24383088  0.93917062  0.12944448    -0.10300
C494        C  0.26153838  0.97350259  0.12349091     0.05900
C495        C  0.28144760  0.99156265  0.14777851    -0.04100
C496        C  0.28111343  0.97657402  0.17807909    -0.08500
C497        C  0.26103302  0.94358642  0.18476803     0.05000
C498        C  0.24372630  0.92386860  0.15971340    -0.03500
Br499      Br  0.21591784  0.87855282  0.16572040    -0.03200
H500        H  0.22809945  0.92530575  0.11079566     0.08900
H501        H  0.29507940  0.99192118  0.19690436     0.06900
Br502      Br  0.30511252  0.03915496  0.14159642    -0.03700
C503        C  0.96039325  0.11319104  0.25005218    -0.10300
C504        C  0.95680162  0.15053151  0.23998992     0.05900
C505        C  0.92049942  0.16652144  0.23810501    -0.04100
C506        C  0.88921023  0.14515316  0.24614005    -0.08500
C507        C  0.89311343  0.10815749  0.25657299     0.05000
C508        C  0.92912818  0.09214779  0.25846367    -0.03500
Br509      Br  0.93733873  0.04127145  0.27111854    -0.03200
H510        H  0.98780751  0.10015160  0.25162288     0.08900
H511        H  0.86161243  0.15789218  0.24497170     0.06900
Br512      Br  0.91086248  0.21677579  0.22430036    -0.03700
C513        C  0.02172098  0.26153160  0.33730139    -0.10300
C514        C  0.05079459  0.23662476  0.32890474     0.05900
C515        C  0.06684350  0.21369686  0.35219066    -0.04100
C516        C  0.05126107  0.21345829  0.38235188    -0.08500
C517        C  0.02028499  0.23623505  0.38993193     0.05000
C518        C  0.00661638  0.26170580  0.36763657    -0.03500
Br519      Br  0.96481546  0.29406503  0.37629563    -0.03200
H520        H  0.00941306  0.27966692  0.31968479     0.08900
H521        H  0.06207087  0.19384635  0.39953354     0.06900
Br522      Br  0.10667784  0.17890828  0.34336234    -0.03700
C523        C  0.96615875  0.22054719  0.13253775    -0.10300
C524        C  0.99881569  0.24086783  0.14003371     0.05900
C525        C  0.01464433  0.26405281  0.11717647    -0.04100
C526        C  0.99980346  0.26387084  0.08653340    -0.08500
C527        C  0.96892297  0.24113798  0.07830895     0.05000
C528        C  0.95094489  0.22073294  0.10205508    -0.03500
Br529      Br  0.90877871  0.18883982  0.09353674    -0.03200
H530        H  0.95378898  0.20252772  0.15004231     0.08900
H531        H  0.01370292  0.28006211  0.06859559     0.06900
Br532      Br  0.05913485  0.29259634  0.12560951    -0.03700
C533        C  0.20789515  0.12875377  0.13937758    -0.10300
C534        C  0.19854281  0.13512881  0.10766810     0.05900
C535        C  0.17242875  0.16373129  0.10065168    -0.04100
C536        C  0.15405583  0.18283228  0.12510365    -0.08500
C537        C  0.16105130  0.17421103  0.15682772     0.05000
C538        C  0.18965557  0.14803763  0.16386803    -0.03500
Br539      Br  0.20149562  0.13309099  0.20608525    -0.03200
H540        H  0.22766702  0.10673188  0.14521011     0.08900
H541        H  0.13204812  0.20261531  0.11922093     0.06900
Br542      Br  0.15599995  0.17425035  0.05854576    -0.03700
C543        C  0.15704209  0.10000612  0.27610911    -0.10300
C544        C  0.12520354  0.09717230  0.25658908     0.05900
C545        C  0.11395477  0.06136249  0.24564080    -0.04100
C546        C  0.13480401  0.02965654  0.25397316    -0.08500
C547        C  0.16736091  0.03277334  0.27255584     0.05000
C548        C  0.17834853  0.06846312  0.28379139    -0.03500
Br549      Br  0.22144507  0.07631767  0.31040037    -0.03200
H550        H  0.16633444  0.12719501  0.28458845     0.08900
H551        H  0.12583103  0.00238923  0.24541183     0.06900
Br552      Br  0.07011528  0.05335090  0.21994152    -0.03700
C553        C  0.17151274  0.59798607  0.99421959    -0.10300
C554        C  0.17052760  0.59435728  0.02721695     0.05900
C555        C  0.14296494  0.61426972  0.04407963    -0.04100
C556        C  0.11774927  0.63790887  0.02801025    -0.08500
C557        C  0.12070285  0.64362593  0.99525940     0.05000
C558        C  0.14756335  0.62282711  0.97837183    -0.03500
Br559      Br  0.15446242  0.62969973  0.43401878    -0.03200
H560        H  0.19311237  0.58377302  0.98085902     0.08900
H561        H  0.09798677  0.65445657  0.04160582     0.06900
Br562      Br  0.14103572  0.61242606  0.08915140    -0.03700
C563        C  0.38966119  0.84342988  0.23877584    -0.10300
C564        C  0.40040479  0.81914653  0.26292461     0.05900
C565        C  0.38752698  0.82633186  0.29385417    -0.04100
C566        C  0.36156400  0.85489877  0.29953329    -0.08500
C567        C  0.34809134  0.87690917  0.27490730     0.05000
C568        C  0.36384283  0.87240653  0.24462596    -0.03500
Br569      Br  0.34717258  0.90146308  0.20952560    -0.03200
H570        H  0.39905731  0.83810103  0.21490595     0.08900
H571        H  0.34935738  0.85777964  0.32277738     0.06900
Br572      Br  0.40077082  0.79578191  0.32899502    -0.03700
C573        C  0.33360968  0.66927410  0.12008762    -0.10300
C574        C  0.31122689  0.63821843  0.12700142     0.05900
C575        C  0.30427623  0.62975145  0.15890661    -0.04100
C576        C  0.32353652  0.64905206  0.18294182    -0.08500
C577        C  0.35021122  0.67641113  0.17561844     0.05000
C578        C  0.35329469  0.68812438  0.14406573    -0.03500
Br579      Br  0.38673260  0.72740864  0.13216801    -0.03200
H580        H  0.33900542  0.67643359  0.09577293     0.08900
H581        H  0.32054225  0.63987052  0.20706445     0.06900
Br582      Br  0.27123606  0.58990927  0.17072061    -0.03700
C583        C  0.12715806  0.32059549  0.28633502    -0.10300
C584        C  0.12000736  0.32100879  0.25370038     0.05900
C585        C  0.13605059  0.34945059  0.23554677    -0.04100
C586        C  0.16021243  0.37577686  0.24988247    -0.08500
C587        C  0.16977216  0.37338613  0.28208961     0.05000
C588        C  0.15228171  0.34594827  0.30040962    -0.03500
Br589      Br  0.16469640  0.33995970  0.34411559    -0.03200
H590        H  0.11534459  0.29863323  0.30061024     0.08900
H591        H  0.17439665  0.39587308  0.23518525     0.06900
Br592      Br  0.12826952  0.35118022  0.19087830    -0.03700
C593        C  0.39309441  0.55975977  0.25587701    -0.10300
C594        C  0.38839763  0.59339073  0.27307436     0.05900
C595        C  0.36223321  0.59429204  0.29814570    -0.04100
C596        C  0.34152213  0.56231636  0.30502376    -0.08500
C597        C  0.34684786  0.52893760  0.28814673     0.05000
C598        C  0.37262767  0.52771859  0.26324211    -0.03500
Br599      Br  0.37831071  0.48397054  0.23692900    -0.03200
H600        H  0.41228759  0.55846264  0.23619741     0.08900
H601        H  0.32125452  0.56344149  0.32392694     0.06900
Br602      Br  0.35154819  0.63786580  0.32362934    -0.03700
C603        C  0.23130683  0.48285379  0.15977442    -0.10300
C604        C  0.26184494  0.47402193  0.14035205     0.05900
C605        C  0.28850905  0.44728915  0.15109197    -0.04100
C606        C  0.28551363  0.43203754  0.18118069    -0.08500
C607        C  0.25683859  0.44326864  0.20146563     0.05000
C608        C  0.22887333  0.46800175  0.19025488    -0.03500
Br609      Br  0.18716656  0.48269805  0.21595208    -0.03200
H610        H  0.21051299  0.50298709  0.15201002     0.08900
H611        H  0.30713620  0.41308603  0.18951002     0.06900
Br612      Br  0.33087581  0.43100483  0.12665911    -0.03700
C613        C  0.23056344  0.49234101  0.40856596    -0.10300
C614        C  0.26415117  0.49477011  0.39163159     0.05900
C615        C  0.29363125  0.51730202  0.40433162    -0.04100
C616        C  0.28989387  0.53440790  0.43387083    -0.08500
C617        C  0.25777730  0.52915502  0.45177808     0.05000
C618        C  0.22745613  0.50886588  0.43865637    -0.03500
Br619      Br  0.18193332  0.50175591  0.46162831    -0.03200
H620        H  0.20756387  0.47573328  0.39929986     0.08900
H621        H  0.31341943  0.54966557  0.44392146     0.06900
Br622      Br  0.34102750  0.52521285  0.38401890    -0.03700
C623        C  0.35988521  0.11912859  0.04765442    -0.10300
C624        C  0.34893998  0.09302090  0.02473094     0.05900
C625        C  0.36748427  0.09309877  0.99532776    -0.04100
C626        C  0.39346506  0.12149142  0.98833014    -0.08500
C627        C  0.40175751  0.14968812  0.01051140     0.05000
C628        C  0.38595538  0.14699386  0.04096966    -0.03500
Br629      Br  0.39582251  0.18195929  0.07435935    -0.03200
H630        H  0.34596598  0.11952359  0.07030849     0.08900
H631        H  0.40506584  0.12301184  0.46484345     0.06900
Br632      Br  0.35508903  0.05815063  0.96254776    -0.03700
C633        C  0.36048732  0.27990291  0.38823713    -0.10300
C634        C  0.35395312  0.29025910  0.41977204     0.05900
C635        C  0.32351809  0.31439929  0.42648961    -0.04100
C636        C  0.30453843  0.33214524  0.40177317    -0.08500
C637        C  0.31458969  0.32554538  0.37023839     0.05000
C638        C  0.34074466  0.29685155  0.36353431    -0.03500
Br639      Br  0.35502983  0.28349693  0.32139241    -0.03200
H640        H  0.38322410  0.26078629  0.38264539     0.08900
H641        H  0.28399970  0.35363198  0.40732476     0.06900
Br642      Br  0.30987545  0.32876243  0.46854653    -0.03700
C643        C  0.35531769  0.36991030  0.03257298    -0.10300
C644        C  0.39029448  0.37477383  0.01817292     0.05900
C645        C  0.40317705  0.41117064  0.01242383    -0.04100
C646        C  0.38123171  0.44186977  0.02142390    -0.08500
C647        C  0.34595322  0.43727164  0.03548914     0.05000
C648        C  0.33267040  0.40056902  0.04046457    -0.03500
Br649      Br  0.28422820  0.38951543  0.05762404    -0.03200
H650        H  0.34483362  0.34192392  0.03660629     0.08900
H651        H  0.39160290  0.46941786  0.01702766     0.06900
Br652      Br  0.45097415  0.42083737  0.99359503    -0.03700
C653        C  0.90822315  0.33796740  0.02765229    -0.10300
C654        C  0.90390730  0.32677782  0.99588540     0.05900
C655        C  0.87571687  0.34372093  0.47761018    -0.04100
C656        C  0.85068586  0.36901439  0.99167675    -0.08500
C657        C  0.85249154  0.37715776  0.02415211     0.05000
C658        C  0.88239548  0.36259376  0.04194943    -0.03500
Br659      Br  0.88680877  0.37296946  0.08617888    -0.03200
H660        H  0.92941723  0.32468801  0.04218560     0.08900
H661        H  0.82783991  0.38002907  0.47759962     0.06900
Br662      Br  0.86861192  0.33075944  0.43397299    -0.03700
C663        C  0.59538022  0.31497006  0.48588195    -0.10300
C664        C  0.56148554  0.32446205  0.50049428     0.05900
C665        C  0.56129351  0.35308265  0.02359104    -0.04100
C666        C  0.59451227  0.37199716  0.03128282    -0.08500
C667        C  0.62873906  0.36272658  0.01669145     0.05000
C668        C  0.62880014  0.33349923  0.49377217    -0.03500
Br669      Br  0.67337837  0.31476719  0.47391455    -0.03200
H670        H  0.59591306  0.29272872  0.46830271     0.08900
H671        H  0.59362770  0.39355769  0.04942195     0.06900
Br672      Br  0.51720018  0.36495980  0.04751813    -0.03700
C673        C  0.61998604  0.13531520  0.28115773    -0.10300
C674        C  0.62038022  0.14827912  0.24995381     0.05900
C675        C  0.64364463  0.13044738  0.22780134    -0.04100
C676        C  0.66775261  0.10169526  0.23741708    -0.08500
C677        C  0.67027986  0.09152022  0.26927687     0.05000
C678        C  0.64532549  0.10762444  0.29105946    -0.03500
Br679      Br  0.64787522  0.09540809  0.33490578    -0.03200
H680        H  0.60264227  0.14936515  0.29856249     0.08900
H681        H  0.68733344  0.08995496  0.22052543     0.06900
Br682      Br  0.64608508  0.14721457  0.18505385    -0.03700
C683        C  0.46362780  0.36121324  0.26671181    -0.10300
C684        C  0.46213129  0.32507187  0.25332874     0.05900
C685        C  0.42654315  0.30854819  0.24771189    -0.04100
C686        C  0.39393015  0.32853108  0.25495906    -0.08500
C687        C  0.39564698  0.36400744  0.26923459     0.05000
C688        C  0.43094164  0.38038911  0.27518274    -0.03500
Br689      Br  0.43648461  0.42898008  0.29445538    -0.03200
H690        H  0.49044204  0.37441321  0.27131930     0.08900
H691        H  0.36694422  0.31540672  0.25085353     0.06900
Br692      Br  0.41932910  0.25888203  0.23070171    -0.03700
C693        C  0.52595902  0.20956526  0.34640089    -0.10300
C694        C  0.55459487  0.23507637  0.33876442     0.05900
C695        C  0.56782931  0.25983623  0.36228629    -0.04100
C696        C  0.55089860  0.26030886  0.39196972    -0.08500
C697        C  0.52061844  0.23657794  0.39889372     0.05000
C698        C  0.50900586  0.21009735  0.37617782    -0.03500
Br699      Br  0.46715349  0.17765875  0.38321146    -0.03200
H700        H  0.51521034  0.19055297  0.32846348     0.08900
H701        H  0.56001585  0.28098737  0.40924553     0.06900
Br702      Br  0.60495069  0.29724607  0.35402766    -0.03700
C703        C  0.51371643  0.21520930  0.13051048    -0.10300
C704        C  0.50450404  0.24587158  0.14984765     0.05900
C705        C  0.47785263  0.27243475  0.13906684    -0.04100
C706        C  0.46348280  0.26961381  0.10857485    -0.08500
C707        C  0.47535096  0.24095662  0.08835460     0.05000
C708        C  0.49938888  0.21265820  0.09980056    -0.03500
Br709      Br  0.51314960  0.16999654  0.07447235    -0.03200
H710        H  0.53351085  0.19430383  0.13865979     0.08900
H711        H  0.44447032  0.29106301  0.10007587     0.06900
Br712      Br  0.46017701  0.31391605  0.16422238    -0.03700
C713        C  0.69947583  0.31624476  0.17438553    -0.10300
C714        C  0.66728595  0.29509312  0.16739169     0.05900
C715        C  0.65859384  0.28750072  0.13537610    -0.04100
C716        C  0.67927794  0.30436569  0.11129594    -0.08500
C717        C  0.70848408  0.32935652  0.11846053     0.05000
C718        C  0.71982114  0.33351429  0.15026920    -0.03500
Br719      Br  0.76116653  0.36508755  0.16197968    -0.03200
H720        H  0.70685123  0.32222966  0.19872147     0.08900
H721        H  0.67005511  0.30081989  0.08707125     0.06900
Br722      Br  0.61696108  0.25638386  0.12325372    -0.03700
C723        C  0.86340376  0.59542304  0.24772436    -0.10300
C724        C  0.85283751  0.60071272  0.27944749     0.05900
C725        C  0.87005844  0.62966518  0.29698499    -0.04100
C726        C  0.89560490  0.65375855  0.28246587    -0.08500
C727        C  0.90376520  0.65043229  0.25014033     0.05000
C728        C  0.88813558  0.62037972  0.23293779    -0.03500
Br729      Br  0.89736009  0.61459025  0.18872620    -0.03200
H730        H  0.84982415  0.57386140  0.23361430     0.08900
H731        H  0.90703991  0.67695155  0.29604658     0.06900
Br732      Br  0.85757899  0.63883728  0.34031351    -0.03700
C733        C  0.64152444  0.44159076  0.27939308    -0.10300
C734        C  0.67858858  0.43846080  0.29063317     0.05900
C735        C  0.69368790  0.40225456  0.29556647    -0.04100
C736        C  0.67225125  0.37053670  0.28808192    -0.08500
C737        C  0.63591267  0.37392472  0.27552293     0.05000
C738        C  0.62025953  0.40991620  0.27188240     0.01300
Br739      Br  0.56959100  0.41771717  0.25772952    -0.03200
H740        H  0.62896034  0.46894923  0.27602431     0.08900
H741        H  0.68462140  0.34301366  0.29104284     0.06900
Br742      Br  0.74278693  0.39352837  0.31291220    -0.03700
C743        C  0.59285581  0.59377761  0.28062652    -0.10300
C744        C  0.62730619  0.60793757  0.27013391     0.05900
C745        C  0.62709081  0.64003384  0.25076365    -0.04100
C746        C  0.59309129  0.65703759  0.24258080    -0.08500
C747        C  0.55878995  0.64290665  0.25313219     0.05000
C748        C  0.55883071  0.61082332  0.27231614    -0.03500
Br749      Br  0.51376986  0.59068237  0.29000442    -0.03200
H750        H  0.59236834  0.56957327  0.29583524     0.08900
H751        H  0.59350800  0.68178769  0.22798307     0.06900
Br752      Br  0.67179610  0.66444875  0.23653615    -0.03700
C753        C  0.79262649  0.50371325  0.19063148    -0.10300
C754        C  0.76483465  0.52985622  0.19958981     0.05900
C755        C  0.73767743  0.54045836  0.17722984    -0.04100
C756        C  0.73721550  0.52321218  0.14743376    -0.08500
C757        C  0.76348120  0.49525134  0.13913330     0.05000
C758        C  0.79232543  0.48662292  0.16064417    -0.03500
Br759      Br  0.82923989  0.44887779  0.15172071    -0.03200
H760        H  0.81360372  0.49510077  0.20767980     0.08900
H761        H  0.71487965  0.53036924  0.13111688     0.06900
Br762      Br  0.69764580  0.57441085  0.18737933    -0.03700
C763        C  0.74845724  0.44770524  0.39423533    -0.10300
C764        C  0.76935965  0.48022359  0.38841277     0.05900
C765        C  0.79270490  0.49456854  0.41236366    -0.04100
C766        C  0.79218375  0.47827716  0.44236657    -0.08500
C767        C  0.76896512  0.44732056  0.44893104     0.05000
C768        C  0.74839940  0.43098856  0.42394281    -0.03500
Br769      Br  0.71605718  0.38891903  0.42949715    -0.03200
H770        H  0.73018481  0.43650224  0.37598155     0.08900
H771        H  0.80865970  0.49103512  0.46110902     0.06900
Br772      Br  0.82218670  0.53873527  0.40620787    -0.03700
C773        C  0.65281507  0.86534532  0.04423620    -0.10300
C774        C  0.67334762  0.88010817  0.01927365     0.05900
C775        C  0.66347067  0.86955925  0.48810149    -0.04100
C776        C  0.63690747  0.84147298  0.48260777    -0.08500
C777        C  0.61886573  0.82431898  0.00771869     0.05000
C778        C  0.62525987  0.83808418  0.03861249    -0.03500
Br779      Br  0.60031957  0.81772341  0.07434081    -0.03200
H780        H  0.66007916  0.87297838  0.06828324     0.08900
H781        H  0.63224477  0.83118513  0.45878984     0.06900
Br782      Br  0.68790088  0.88920544  0.45196381    -0.03700
C783        C  0.45797317  0.60967546  0.00658252    -0.10300
C784        C  0.45918640  0.64902446  0.50821042     0.05900
C785        C  0.42635346  0.66862979  0.51769961    -0.04100
C786        C  0.39361441  0.64876828  0.52444748    -0.08500
C787        C  0.39279563  0.60958923  0.02273947     0.05000
C788        C  0.42541366  0.59007146  0.01401015    -0.03500
Br789      Br  0.42690198  0.53676349  0.01099452    -0.03200
H790        H  0.48250282  0.59382379  0.99945755     0.08900
H791        H  0.36888842  0.66396871  0.53214827     0.06900
Br792      Br  0.42377144  0.72204402  0.52371646    -0.03700
C793        C  0.52174132  0.76067211  0.10325552    -0.10300
C794        C  0.54992835  0.73481730  0.09464844     0.05900
C795        C  0.56315747  0.70920010  0.11710336    -0.04100
C796        C  0.54597464  0.70768963  0.14650474    -0.08500
C797        C  0.51592034  0.73157779  0.15421861     0.05000
C798        C  0.50502480  0.75957144  0.13299449    -0.03500
Br799      Br  0.46534039  0.79433035  0.14216916    -0.03200
H800        H  0.51151626  0.78074404  0.08621454     0.08900
H801        H  0.55491872  0.68634984  0.16295994     0.06900
Br802      Br  0.60095013  0.67238205  0.10786585    -0.03700
C803        C  0.51899936  0.75429182  0.38299268    -0.10300
C804        C  0.50239927  0.73129850  0.40534939     0.05900
C805        C  0.46981558  0.71090746  0.39722019    -0.04100
C806        C  0.45624092  0.71128584  0.36631640    -0.08500
C807        C  0.47488230  0.73155322  0.34313073     0.05000
C808        C  0.50550599  0.75467400  0.35200711    -0.03500
Br809      Br  0.53026783  0.78743501  0.32316925    -0.03200
H810        H  0.54380303  0.77030214  0.38915012     0.08900
H811        H  0.43221485  0.69416471  0.36008405     0.06900
Br812      Br  0.44332459  0.68119976  0.42722241    -0.03700
C813        C  0.65833938  0.68685766  0.39282938    -0.10300
C814        C  0.66573770  0.67661489  0.42417064     0.05900
C815        C  0.69642649  0.65255873  0.43013976    -0.04100
C816        C  0.71592533  0.63603612  0.40488186    -0.08500
C817        C  0.70598604  0.64336914  0.37337303     0.05000
C818        C  0.67831892  0.67088866  0.36760147    -0.03500
Br819      Br  0.66249279  0.68387287  0.32586966    -0.03200
H820        H  0.63505207  0.70546742  0.38775939     0.08900
H821        H  0.73705164  0.61498856  0.40989040     0.06900
Br822      Br  0.70965635  0.63674138  0.47182580    -0.03700
C823        C  0.66729269  0.60152524  0.04055729    -0.10300
C824        C  0.63183791  0.59769176  0.02638543     0.05900
C825        C  0.61797969  0.56152631  0.01977353    -0.04100
C826        C  0.63991605  0.53018138  0.02667402    -0.08500
C827        C  0.67603066  0.53391530  0.03978577     0.05000
C828        C  0.68967614  0.57023251  0.04685946    -0.03500
Br829      Br  0.73814247  0.57974190  0.06528379    -0.03200
H830        H  0.67842904  0.62920541  0.04550314     0.08900
H831        H  0.62869590  0.50263446  0.02136100     0.06900
Br832      Br  0.56892442  0.55293805  0.00226871    -0.03700
O833        O  0.60274606  0.67908934  0.94072208    -0.82900
C834        C  0.56000708  0.73136338  0.56111987     0.96400
O835        O  0.59377136  0.72693839  0.55242027    -0.72100
O836        O  0.61554983  0.66186951  0.53058735    -0.75600
Al837      Al  0.61586116  0.71029639  0.51296790     1.49000
C838        C  0.61253041  0.63173234  0.51535763     0.91700
O839        O  0.52391752  0.64907863  0.99432256    -0.81900
O840        O  0.53240912  0.74902585  0.95377692    -0.75400
Al841      Al  0.56370452  0.66566613  0.96840631     1.90100
O842        O  0.49499702  0.70336188  0.99572102    -0.74500
O843        O  0.56699374  0.78252172  0.00349845    -0.74300
O844        O  0.53361811  0.73286568  0.54142209    -0.80000
O845        O  0.62368780  0.75961214  0.99916378    -0.78200
O846        O  0.57196478  0.70529931  0.99322275    -1.14300
O847        O  0.64544639  0.69357016  0.97664704    -0.73500
C848        C  0.63665271  0.68439844  0.94845623     0.97200
C849        C  0.49457199  0.66820424  0.99943200     0.93600
Al850      Al  0.53533708  0.73922202  0.99801007     1.55600
O851        O  0.59579049  0.63118603  0.98925801    -0.78200
C852        C  0.60198434  0.78711626  0.00253015     0.97700
C853        C  0.52258796  0.72336338  0.93472243     0.92600
O854        O  0.52953621  0.68952637  0.94056522    -0.83500
O855        O  0.71438101  0.58127616  0.85614296    -0.82900
C856        C  0.76093643  0.53956457  0.73346819     0.96400
O857        O  0.75781586  0.57332605  0.74319862    -0.72100
O858        O  0.69224699  0.59300857  0.76610527    -0.75600
Al859      Al  0.74112427  0.59485928  0.78357940     1.49000
C860        C  0.66263998  0.59072651  0.78180328     0.91700
O861        O  0.68120088  0.50319558  0.80293436    -0.81900
O862        O  0.78417978  0.51150642  0.83989959    -0.75400
Al863      Al  0.69934087  0.54269149  0.82840103     1.90100
O864        O  0.73510648  0.47364887  0.79935285    -0.74500
O865        O  0.81356702  0.54730347  0.78834295    -0.74300
O866        O  0.76108568  0.51278057  0.75253496    -0.80000
O867        O  0.79072269  0.60310935  0.79805188    -0.78200
O868        O  0.73729958  0.55090658  0.80251628    -1.14300
O869        O  0.72402087  0.62441801  0.82042545    -0.73500
C870        C  0.71659227  0.61531185  0.84871682     0.97200
C871        C  0.69951949  0.47344793  0.79780928     0.93600
Al872      Al  0.77090772  0.51451786  0.79585715     1.55600
O873        O  0.66323719  0.57481139  0.80820963    -0.78200
C874        C  0.81793599  0.58244940  0.79052776     0.97700
C875        C  0.75983426  0.50178393  0.85987389     0.92600
O876        O  0.72553400  0.50868966  0.85518285    -0.83500
O877        O  0.53329518  0.28588715  0.68635763    -0.82900
C878        C  0.56432644  0.23983990  0.80514565     0.96400
O879        O  0.53746816  0.24035301  0.78579616    -0.72100
O880        O  0.49838948  0.27087569  0.74103759    -0.75600
Al881      Al  0.53839862  0.23477615  0.74208879     1.49000
C882        C  0.49779936  0.30598556  0.74516842     0.91700
O883        O  0.59926016  0.34200204  0.73745466    -0.81900
O884        O  0.64894378  0.27844584  0.72022918    -0.75400
Al885      Al  0.56712256  0.30878465  0.71502010     1.90100
O886        O  0.62139654  0.30910574  0.77626660    -0.74500
O887        O  0.62605832  0.21241108  0.73995165    -0.74300
O888        O  0.59809082  0.24350036  0.79599460    -0.80000
O889        O  0.56936716  0.19095559  0.74620480    -0.78200
O890        O  0.57542257  0.26818652  0.73801348    -1.14300
O891        O  0.53473762  0.22604172  0.69752945    -0.73500
C892        C  0.52535306  0.25246999  0.67938490     0.97200
C893        C  0.61714372  0.34008702  0.76294230     0.93600
Al894      Al  0.61981554  0.26127593  0.75651841     1.55600
O895        O  0.52736312  0.32492263  0.74154318    -0.78200
C896        C  0.60410493  0.18545693  0.74381956     0.97700
C897        C  0.63922828  0.28856860  0.69262707     0.92600
O898        O  0.60546522  0.29631092  0.68645036    -0.83500
O899        O  0.72224594  0.46494076  0.60412282    -0.82900
C900        C  0.76318188  0.43679045  0.98242122     0.96400
O901        O  0.76273103  0.46298791  0.00250769    -0.72100
O902        O  0.73297647  0.50015191  0.54939149    -0.75600
Al903      Al  0.77019561  0.46056727  0.54615137     1.49000
C904        C  0.69748197  0.49941654  0.54683050     0.91700
O905        O  0.66391422  0.39696336  0.55504178    -0.81900
O906        O  0.72560199  0.34936289  0.56612164    -0.75400
Al907      Al  0.69846726  0.43017222  0.57609556     1.90100
O908        O  0.69318937  0.38095963  0.51224528    -0.74500
O909        O  0.79182698  0.37235196  0.54464214    -0.74300
O910        O  0.75905231  0.40289331  0.99085321    -0.80000
O911        O  0.81387544  0.42903172  0.53908686    -0.78200
O912        O  0.73723504  0.42335801  0.55064034    -1.14300
O913        O  0.78144480  0.46344902  0.59075130    -0.73500
C914        C  0.75599925  0.47289699  0.61005320     0.97200
C915        C  0.66362959  0.38146259  0.52821759     0.93600
Al916      Al  0.74224073  0.37997368  0.53018878     1.55600
O917        O  0.67973293  0.46928408  0.55104085    -0.78200
C918        C  0.81859812  0.39389996  0.53857752     0.97700
C919        C  0.71830292  0.35800509  0.59474172     0.92600
O920        O  0.71460926  0.39184138  0.60305418    -0.83500
O921        O  0.41768968  0.28768745  0.93428694    -0.82900
C922        C  0.46524731  0.24324842  0.55491788     0.96400
O923        O  0.43169113  0.24980217  0.54684431    -0.72100
O924        O  0.41027974  0.31243384  0.52391236    -0.75600
Al925      Al  0.40786609  0.26317691  0.50806949     1.49000
C926        C  0.41055478  0.34114049  0.50730976     0.91700
O927        O  0.49740305  0.32275973  0.98560309    -0.81900
O928        O  0.48898403  0.22027847  0.94697060    -0.75400
Al929      Al  0.45736438  0.30401370  0.96063054     1.90100
O930        O  0.52751138  0.26871322  0.98824833    -0.74500
O931        O  0.45461933  0.18888502  0.99817799    -0.74300
O932        O  0.49077819  0.23955215  0.53487262    -0.80000
O933        O  0.39815142  0.21309527  0.99714555    -0.78200
O934        O  0.45051891  0.26596522  0.98678915    -1.14300
O935        O  0.37669295  0.27720270  0.97204573    -0.73500
C936        C  0.38414747  0.28357254  0.94326016     0.97200
C937        C  0.52693784  0.30425922  0.99133201     0.93600
Al938      Al  0.48716273  0.23203731  0.99137874     1.55600
O939        O  0.42508443  0.34000981  0.98044872    -0.78200
C940        C  0.41939813  0.18532329  0.00055576     0.97700
C941        C  0.49868754  0.24513722  0.92758769     0.92600
O942        O  0.49140845  0.27910390  0.93312168    -0.83500
O943        O  0.30987068  0.38868022  0.85566121    -0.82900
C944        C  0.26001527  0.43355492  0.73514316     0.96400
O945        O  0.26510730  0.39989017  0.74355944    -0.72100
O946        O  0.33090629  0.37893234  0.76509107    -0.75600
Al947      Al  0.28199943  0.37741495  0.78265514     1.49000
C948        C  0.36064669  0.38084591  0.78105385     0.91700
O949        O  0.34419280  0.46601631  0.80360275    -0.81900
O950        O  0.24363021  0.46254349  0.84379379    -0.75400
Al951      Al  0.32576569  0.42722417  0.82888781     1.90100
O952        O  0.29078968  0.49732040  0.80100128    -0.74500
O953        O  0.20964939  0.42611984  0.79314162    -0.74300
O954        O  0.25919252  0.45982444  0.75508864    -0.80000
O955        O  0.23284051  0.36935182  0.79669291    -0.78200
O956        O  0.28665696  0.42070973  0.80338765    -1.14300
O957        O  0.29856106  0.34687878  0.81819375    -0.73500
C958        C  0.30595851  0.35496887  0.84685700     0.97200
C959        C  0.32612374  0.49558499  0.79760593     0.93600
Al960      Al  0.25339087  0.45805127  0.79893045     1.55600
O961        O  0.36012462  0.39459600  0.80834562    -0.78200
C962        C  0.20536954  0.39087818  0.79258320     0.97700
C963        C  0.26994236  0.47175026  0.86258957     0.92600
O964        O  0.30291652  0.46177965  0.85662106    -0.83500
O965        O  0.48721145  0.68849781  0.68720650    -0.82900
C966        C  0.46387718  0.72628224  0.80982660     0.96400
O967        O  0.48909414  0.72703080  0.78937744    -0.72100
O968        O  0.52440681  0.69834410  0.74175764    -0.75600
Al969      Al  0.48449527  0.73511254  0.74628061     1.49000
C970        C  0.52389781  0.66286202  0.74442060     0.91700
O971        O  0.42153065  0.62837719  0.73489229    -0.81900
O972        O  0.37346202  0.68980741  0.72782793    -0.75400
Al973      Al  0.45377218  0.66371473  0.71476718     1.90100
O974        O  0.40937905  0.65625906  0.77924376    -0.74500
O975        O  0.39570048  0.75503610  0.75173882    -0.74300
O976        O  0.42990100  0.72082518  0.80212688    -0.80000
O977        O  0.45252156  0.77824936  0.75395388    -0.78200
O978        O  0.44770095  0.70179778  0.74157919    -1.14300
O979        O  0.48494319  0.74720673  0.70249730    -0.73500
C980        C  0.49423116  0.72255870  0.68246413     0.97200
C981        C  0.40797019  0.62747906  0.76219477     0.93600
Al982      Al  0.40558076  0.70530517  0.76338712     1.55600
O983        O  0.49426506  0.64454491  0.73874616    -0.78200
C984        C  0.41734655  0.78253862  0.75500166     0.97700
C985        C  0.38053435  0.68417011  0.69871675     0.92600
O986        O  0.41390748  0.68052848  0.68927146    -0.83500
O987        O  0.30218076  0.50397434  0.60526984    -0.82900
C988        C  0.26012350  0.53765588  0.98574224     0.96400
O989        O  0.25987639  0.51030633  0.00423924    -0.72100
O990        O  0.28982858  0.47050348  0.54910273    -0.75600
Al991      Al  0.25286516  0.51044275  0.54783488     1.49000
C992        C  0.32511800  0.47127603  0.54556848     0.91700
O993        O  0.35986323  0.57233099  0.55872710    -0.81900
O994        O  0.29535865  0.62040895  0.57383291    -0.75400
Al995      Al  0.32561848  0.53917572  0.57857592     1.90100
O996        O  0.32851625  0.59410958  0.51867002    -0.74500
O997        O  0.23014578  0.59810486  0.55088274    -0.74300
O998        O  0.26401853  0.57113149  0.99582440    -0.80000
O999        O  0.20878007  0.54189932  0.54168951    -0.78200
O1000       O  0.28595030  0.54756026  0.55409199    -1.14300
O1001       O  0.24259067  0.50558937  0.59245402    -0.73500
C1002       C  0.26866611  0.49569995  0.61119806     0.97200
C1003       C  0.35884999  0.59024759  0.53342407     0.93600
Al1004     Al  0.27981383  0.59215786  0.53632803     1.55600
O1005       O  0.34316550  0.50098149  0.55134628    -0.78200
C1006       C  0.20375982  0.57697669  0.54259370     0.97700
C1007       C  0.30414438  0.61031913  0.60162428     0.92600
O1008       O  0.31112788  0.57645680  0.60763896    -0.83500
O1009       O  0.09862438  0.18430596  0.67242499    -0.82900
C1010       C  0.05933501  0.23170618  0.79515025     0.96400
O1011       O  0.09274056  0.22782977  0.78544772    -0.72100
O1012       O  0.11029464  0.16172371  0.76218793    -0.75600
Al1013     Al  0.11314624  0.21064011  0.74544012     1.49000
C1014       C  0.10717154  0.13227391  0.74586589     0.91700
O1015       O  0.02049483  0.15220377  0.72482058    -0.81900
O1016       O  0.02952859  0.25484349  0.68934489    -0.75400
Al1017     Al  0.05981203  0.16984179  0.69963673     1.90100
O1018       O  0.99177142  0.20641490  0.72940579    -0.74500
O1019       O  0.06648721  0.28372532  0.74092836    -0.74300
O1020       O  0.03211229  0.23199806  0.77616222    -0.80000
O1021       O  0.12215275  0.26019638  0.73180216    -0.78200
O1022       O  0.06893511  0.20761477  0.72609445    -1.14300
O1023       O  0.14184712  0.19303830  0.70900856    -0.73500
C1024       C  0.13271854  0.18561169  0.68059116     0.97200
C1025       C  0.99134971  0.17091771  0.73111023     0.93600
Al1026     Al  0.03310466  0.24164221  0.73305652     1.55600
O1027       O  0.09154081  0.13348171  0.71924802    -0.78200
C1028       C  0.10171009  0.28751318  0.73964244     0.97700
C1029       C  0.01939628  0.23072968  0.66894063     0.92600
O1030       O  0.02573246  0.19635208  0.67315697    -0.83500
O1031       O  0.20643276  0.07252633  0.59098980    -0.82900
C1032       C  0.25549246  0.03338098  0.96901507     0.96400
O1033       O  0.25255854  0.06681991  0.97921698    -0.72100
O1034       O  0.18706123  0.08598554  0.50104710    -0.75600
Al1035     Al  0.23540668  0.08720049  0.51920627     1.49000
C1036       C  0.15719946  0.08420795  0.51636242     0.91700
O1037       O  0.17479278  0.99513970  0.53592023    -0.81900
O1038       O  0.27661789  0.00287289  0.57474841    -0.75400
Al1039     Al  0.19224530  0.03421552  0.56238525     1.90100
O1040       O  0.22897620  0.96603955  0.53269797    -0.74500
O1041       O  0.30809047  0.03935518  0.52545913    -0.74300
O1042       O  0.25644643  0.00605773  0.98744206    -0.80000
O1043       O  0.28438453  0.09498767  0.53450189    -0.78200
O1044       O  0.23103054  0.04293089  0.53739890    -1.14300
O1045       O  0.21786541  0.11583741  0.55574903    -0.73500
C1046       C  0.20932996  0.10660861  0.58367851     0.97200
C1047       C  0.19346598  0.96565136  0.53051573     0.93600
Al1048     Al  0.26488790  0.00671176  0.53081673     1.55600
O1049       O  0.15688413  0.06701505  0.54217119    -0.78200
C1050       C  0.31223942  0.07434409  0.52896555     0.97700
C1051       C  0.25191008  0.99318261  0.59431363     0.92600
O1052       O  0.21763259  0.99957776  0.58913017    -0.83500
O1053       O  0.03206142  0.77351736  0.91733507    -0.82900
C1054       C  0.06045636  0.73095581  0.53827570     0.96400
O1055       O  0.03412541  0.73513315  0.51891271    -0.72100
O1056       O  0.99576978  0.76380781  0.47316375    -0.75600
Al1057     Al  0.03592099  0.72660302  0.97593031     1.49000
C1058       C  0.99684134  0.79927415  0.97618219     0.91700
O1059       O  0.09848813  0.83197324  0.96745658    -0.81900
O1060       O  0.14732334  0.77145252  0.95576856    -0.75400
Al1061     Al  0.06620189  0.79791819  0.94546110     1.90100
O1062       O  0.11524950  0.80152770  0.50977596    -0.74500
O1063       O  0.12406329  0.70437463  0.47439660    -0.74300
O1064       O  0.09441846  0.73442013  0.52972147    -0.80000
O1065       O  0.06781667  0.68275215  0.98308008    -0.78200
O1066       O  0.07308154  0.75919536  0.97083803    -1.14300
O1067       O  0.03311995  0.71463606  0.93197197    -0.73500
C1068       C  0.02467426  0.73949176  0.91211288     0.97200
C1069       C  0.11333392  0.83151449  0.49446566     0.93600
Al1070     Al  0.11670875  0.75331382  0.49076595     1.55600
O1071       O  0.02639608  0.81710033  0.97018123    -0.78200
C1072       C  0.10298834  0.67773522  0.98187107     0.97700
C1073       C  0.13936315  0.77897175  0.92721981     0.92600
O1074       O  0.10559174  0.78219971  0.91846616    -0.83500
O1075       O  0.21300915  0.96506345  0.83860720    -0.82900
C1076       C  0.25526404  0.93400692  0.71831676     0.96400
O1077       O  0.25423681  0.96081742  0.73772099    -0.72100
O1078       O  0.22391938  0.99939345  0.78310107    -0.75600
Al1079     Al  0.26144832  0.96009740  0.78113969     1.49000
C1080       C  0.18845001  0.99844613  0.78052475     0.91700
O1081       O  0.15606098  0.89621542  0.79066910    -0.81900
O1082       O  0.21855845  0.84905918  0.80332207    -0.75400
Al1083     Al  0.18974146  0.92988897  0.81128054     1.90100
O1084       O  0.18611988  0.87926566  0.74833237    -0.74500
O1085       O  0.28366206  0.87223399  0.78220755    -0.74300
O1086       O  0.25203260  0.90038041  0.72750090    -0.80000
O1087       O  0.30566582  0.92896159  0.77624542    -0.78200
O1088       O  0.22889148  0.92275612  0.78630731    -1.14300
O1089       O  0.27218187  0.96426547  0.82524041    -0.73500
C1090       C  0.24670955  0.97306238  0.84453031     0.97200
C1091       C  0.15637340  0.88062330  0.76400115     0.93600
Al1092     Al  0.23473994  0.87886207  0.76691585     1.55600
O1093       O  0.17071328  0.96844999  0.78537480    -0.78200
C1094       C  0.31081060  0.89407215  0.77866466     0.97700
C1095       C  0.21189566  0.85839254  0.83187575     0.92600
O1096       O  0.20591619  0.89227348  0.83910698    -0.83500
O1097       O  0.91617116  0.78008555  0.66485168    -0.82900
C1098       C  0.96765854  0.74161634  0.78646714     0.96400
O1099       O  0.93317578  0.74412900  0.77875338    -0.72100
O1100       O  0.91181620  0.80936089  0.75474052    -0.75600
Al1101     Al  0.90865387  0.75966613  0.73926069     1.49000
C1102       C  0.91124604  0.83754804  0.73716961     0.91700
O1103       O  0.99672719  0.82035262  0.71121282    -0.81900
O1104       O  0.98875488  0.71417178  0.68092630    -0.75400
Al1105     Al  0.95623772  0.79887199  0.68916616     1.90100
O1106       O  0.02738540  0.76710072  0.71722002    -0.74500
O1107       O  0.95645940  0.68791848  0.73492163    -0.74300
O1108       O  0.99248484  0.74437393  0.76593491    -0.80000
O1109       O  0.89986090  0.70956363  0.72661622    -0.78200
O1110       O  0.95085282  0.76297682  0.71749613    -1.14300
O1111       O  0.87630413  0.77482128  0.70402446    -0.73500
C1112       C  0.88293202  0.77904844  0.67478652     0.97200
C1113       C  0.02631225  0.80269127  0.71786039     0.93600
Al1114     Al  0.98805674  0.73077032  0.72386333     1.55600
O1115       O  0.92433650  0.83555865  0.70959039    -0.78200
C1116       C  0.92119487  0.68324194  0.73477473     0.97700
C1117       C  0.99772899  0.73690664  0.65961585     0.92600
O1118       O  0.98962960  0.77130410  0.66213766    -0.83500
O1119       O  0.81416508  0.89515179  0.58966678    -0.82900
C1120       C  0.76660065  0.93797207  0.96836404     0.96400
O1121       O  0.77135794  0.90439076  0.97717817    -0.72100
O1122       O  0.83647847  0.88283529  0.49942362    -0.75600
Al1123     Al  0.78729998  0.88230136  0.51652602     1.49000
C1124       C  0.86589971  0.88336473  0.51579447     0.91700
O1125       O  0.85024079  0.97115063  0.53741716    -0.81900
O1126       O  0.74814149  0.96686572  0.57527086    -0.75400
Al1127     Al  0.83091290  0.93273809  0.56266288     1.90100
O1128       O  0.79694708  0.00225876  0.53413335    -0.74500
O1129       O  0.71538348  0.93202214  0.52513956    -0.74300
O1130       O  0.76680293  0.96467154  0.98785183    -0.80000
O1131       O  0.73757424  0.87501069  0.52969662    -0.78200
O1132       O  0.79222988  0.92586818  0.53664974    -1.14300
O1133       O  0.80264823  0.85241437  0.55302083    -0.73500
C1134       C  0.80910106  0.86137373  0.58173470     0.97200
C1135       C  0.83246828  0.00101155  0.53175677     0.93600
Al1136     Al  0.75943560  0.96319206  0.53126098     1.55600
O1137       O  0.86547528  0.89851517  0.54273847    -0.78200
C1138       C  0.71038140  0.89698143  0.52581672     0.97700
C1139       C  0.77309691  0.97625884  0.59505777     0.92600
O1140       O  0.80704597  0.96844621  0.58987987    -0.83500
O1141       O  0.99118949  0.19378772  0.92330131    -0.82900
C1142       C  0.96023867  0.23531732  0.54447285     0.96400
O1143       O  0.98748847  0.23226087  0.52589215    -0.72100
O1144       O  0.02612835  0.20310451  0.47957943    -0.75600
Al1145     Al  0.98691742  0.24086282  0.98250308     1.49000
C1146       C  0.02420690  0.16774251  0.98217918     0.91700
O1147       O  0.92245442  0.13664240  0.97057343    -0.81900
O1148       O  0.87534253  0.19769602  0.95863030    -0.75400
Al1149     Al  0.95588215  0.17009551  0.95008566     1.90100
O1150       O  0.90576349  0.16746903  0.51294506    -0.74500
O1151       O  0.89944666  0.26435815  0.47846699    -0.74300
O1152       O  0.92669435  0.23386278  0.53425676    -0.80000
O1153       O  0.95589157  0.28508145  0.98907463    -0.78200
O1154       O  0.94923269  0.20898150  0.97578420    -1.14300
O1155       O  0.99089397  0.25270333  0.93876063    -0.73500
C1156       C  0.99938967  0.22765703  0.91871483     0.97200
C1157       C  0.90716918  0.13741973  0.49725289     0.93600
Al1158     Al  0.90536491  0.21556204  0.49450468     1.55600
O1159       O  0.99422943  0.15055304  0.97587370    -0.78200
C1160       C  0.92106897  0.29089608  0.98580722     0.97700
C1161       C  0.88378677  0.18959097  0.93027060     0.92600
O1162       O  0.91768223  0.18633627  0.92221941    -0.83500
O1163       O  0.80345240  0.00024743  0.83800866    -0.82900
C1164       C  0.76216751  0.03762540  0.71895781     0.96400
O1165       O  0.76315229  0.00945707  0.73656164    -0.72100
O1166       O  0.79227379  0.96811427  0.78065078    -0.75600
Al1167     Al  0.75518866  0.00781414  0.77997889     1.49000
C1168       C  0.82759422  0.96877306  0.77759126     0.91700
O1169       O  0.86091362  0.07010331  0.79271269    -0.81900
O1170       O  0.79761367  0.11734256  0.80847029    -0.75400
Al1171     Al  0.82723088  0.03612851  0.81221515     1.90100
O1172       O  0.82903226  0.09210405  0.75295098    -0.74500
O1173       O  0.73206408  0.09475449  0.78713401    -0.74300
O1174       O  0.76399473  0.07070534  0.73027179    -0.80000
O1175       O  0.71104190  0.03899842  0.77506999    -0.78200
O1176       O  0.78774532  0.04486607  0.78764814    -1.14300
O1177       O  0.74413036  0.00181570  0.82385913    -0.73500
C1178       C  0.76962801  0.99233317  0.84311319     0.97200
C1179       C  0.85951809  0.08839214  0.76755130     0.93600
Al1180     Al  0.78097581  0.08994517  0.77112131     1.55600
O1181       O  0.84551652  0.99828119  0.78448683    -0.78200
C1182       C  0.70549677  0.07361363  0.77933541     0.97700
C1183       C  0.80671597  0.10722140  0.83611038     0.92600
O1184       O  0.81251348  0.07308518  0.84209695    -0.83500
C1185       C  0.82889235  0.15031268  0.91598362    -0.10300
C1186       C  0.85454265  0.17808440  0.90717685     0.05900
C1187       C  0.85717504  0.18743487  0.87505721    -0.04100
C1188       C  0.83759159  0.16653879  0.85222600    -0.08500
C1189       C  0.81576337  0.13561447  0.86076393     0.05000
C1190       C  0.80976648  0.12892640  0.89309326    -0.03500
Br1191     Br  0.77728238  0.08973299  0.90714066    -0.03200
H1192       H  0.82624634  0.14288303  0.94057522     0.08900
H1193       H  0.84220754  0.17244651  0.82754784     0.06900
Br1194     Br  0.88897492  0.22695938  0.86096316    -0.03700
C1195       C  0.83699906  0.07017952  0.53186561    -0.10300
C1196       C  0.85312786  0.03544086  0.52389326     0.05900
C1197       C  0.88827113  0.03469286  0.50867300    -0.04100
C1198       C  0.90597611  0.06834618  0.50132949    -0.08500
C1199       C  0.88954854  0.10303008  0.50896422     0.05000
C1200       C  0.85474892  0.10376773  0.52458531    -0.03500
Br1201     Br  0.82812637  0.14929323  0.53421473    -0.03200
H1202       H  0.81012305  0.07130417  0.54363029     0.08900
H1203       H  0.93249363  0.06741963  0.48898480     0.06900
Br1204     Br  0.91260333  0.98918184  0.49516421    -0.03700
C1205       C  0.73590353  0.98713684  0.89370736    -0.10300
C1206       C  0.76156615  0.97202133  0.87223815     0.05900
C1207       C  0.78465995  0.94176245  0.88150641    -0.04100
C1208       C  0.78382210  0.92907365  0.91247134    -0.08500
C1209       C  0.76107539  0.94679588  0.93481159     0.05000
C1210       C  0.73569291  0.97500764  0.92496817    -0.03500
Br1211     Br  0.70050933  0.99840657  0.95313122    -0.03200
H1212       H  0.71796271  0.01024557  0.88682069     0.08900
H1213       H  0.80282637  0.90694700  0.91957607     0.06900
Br1214     Br  0.81973604  0.91811566  0.85345737    -0.03700
C1215       C  0.79013032  0.02521599  0.63421001    -0.10300
C1216       C  0.76428556  0.99783517  0.62405221     0.05900
C1217       C  0.73367100  0.98935044  0.64349402    -0.04100
C1218       C  0.73166440  0.00531490  0.67376838    -0.08500
C1219       C  0.75922350  0.03045880  0.68476416     0.05000
C1220       C  0.78769338  0.04169023  0.66416340    -0.03500
Br1221     Br  0.82663545  0.07564657  0.67697312    -0.03200
H1222       H  0.81348691  0.03257549  0.61927239     0.08900
H1223       H  0.70962148  0.99645522  0.68948842     0.06900
Br1224     Br  0.69633615  0.95325744  0.63147498    -0.03700
C1225       C  0.83594782  0.80004369  0.59744137    -0.10300
C1226       C  0.81586317  0.83244567  0.60601030     0.05900
C1227       C  0.81037762  0.84029960  0.63844429    -0.04100
C1228       C  0.82841724  0.81848336  0.66125001    -0.08500
C1229       C  0.85281040  0.78939617  0.65238473     0.05000
C1230       C  0.85475013  0.77884780  0.62027756    -0.03500
Br1231     Br  0.88571831  0.73795676  0.60618378    -0.03200
H1232       H  0.84033090  0.79334662  0.57277053     0.08900
H1233       H  0.82661647  0.82700991  0.68578992     0.06900
Br1234     Br  0.78157238  0.88254227  0.65318234    -0.03700
C1235       C  0.85328401  0.86764589  0.75599474    -0.10300
C1236       C  0.89101912  0.87140003  0.74770283     0.05900
C1237       C  0.90757396  0.90702970  0.74857748    -0.04100
C1238       C  0.88642431  0.93817331  0.75833199    -0.08500
C1239       C  0.84837112  0.93471643  0.76675186     0.05000
C1240       C  0.83172799  0.89867527  0.76503907    -0.03500
Br1241     Br  0.78010845  0.88857436  0.77464475    -0.03200
H1242       H  0.84022483  0.84026286  0.75484135     0.08900
H1243       H  0.89992429  0.96527189  0.75919894     0.06900
Br1244     Br  0.95926765  0.91415145  0.73800644    -0.03700
C1245       C  0.11064786  0.86703980  0.72078199    -0.10300
C1246       C  0.12227768  0.86198752  0.75213923     0.05900
C1247       C  0.10137174  0.83824157  0.77177584    -0.04100
C1248       C  0.07110181  0.81833664  0.75949997    -0.08500
C1249       C  0.05942680  0.82342881  0.72842065     0.05000
C1250       C  0.07850304  0.84894377  0.70914992    -0.03500
Br1251     Br  0.06176087  0.85993606  0.66718625    -0.03200
H1252       H  0.12600626  0.88576638  0.70563588     0.08900
H1253       H  0.05579641  0.79952125  0.77464332     0.06900
Br1254     Br  0.11210151  0.83141014  0.81558334    -0.03700
C1255       C  0.94275694  0.84109844  0.96399039    -0.10300
C1256       C  0.96319275  0.82036967  0.98621788     0.05900
C1257       C  0.95241504  0.82196212  0.51803888    -0.04100
C1258       C  0.92129078  0.84338711  0.52709373    -0.08500
C1259       C  0.90009870  0.86342209  0.50485527     0.05000
C1260       C  0.91119660  0.86222388  0.97295584    -0.03500
Br1261     Br  0.88566757  0.89032112  0.94098603    -0.03200
H1262       H  0.95141147  0.84086236  0.93955323     0.08900
H1263       H  0.91320276  0.84382276  0.55167948     0.06900
Br1264     Br  0.97989427  0.79647825  0.55032494    -0.03700
C1265       C  0.19318965  0.81898988  0.91258283    -0.10300
C1266       C  0.16905169  0.78938768  0.90450030     0.05900
C1267       C  0.16825773  0.77666333  0.87291352    -0.04100
C1268       C  0.18760483  0.79636744  0.84953914    -0.08500
C1269       C  0.20639608  0.82989468  0.85696005     0.05000
C1270       C  0.21173893  0.83925301  0.88917574    -0.03500
Br1271     Br  0.24242179  0.88075747  0.90244123    -0.03200
H1272       H  0.19489702  0.82868586  0.93683727     0.08900
H1273       H  0.18434119  0.78773378  0.82513341     0.06900
Br1274     Br  0.13875356  0.73421753  0.86034096    -0.03700
C1275       C  0.00110523  0.70464798  0.60792990    -0.10300
C1276       C  0.01917576  0.72483306  0.63184715     0.05900
C1277       C  0.05526896  0.73945371  0.62634694    -0.04100
C1278       C  0.07032258  0.73857677  0.59600021    -0.08500
C1279       C  0.05005001  0.72249219  0.57107448     0.05000
C1280       C  0.01660897  0.70268686  0.57778043    -0.03500
Br1281     Br  0.99021947  0.67312876  0.54677725    -0.03200
H1282       H  0.97388692  0.69231585  0.61216374     0.08900
H1283       H  0.09668426  0.75253704  0.59158520     0.06900
Br1284     Br  0.08488616  0.76146465  0.65932591    -0.03700
C1285       C  0.02881538  0.71773787  0.85741820    -0.10300
C1286       C  0.00634966  0.73027149  0.88208032     0.05900
C1287       C  0.96953481  0.74256934  0.87569429    -0.04100
C1288       C  0.95647093  0.74427611  0.84453873    -0.08500
C1289       C  0.98009955  0.73472486  0.81936431     0.05000
C1290       C  0.01639578  0.71997475  0.82626959    -0.03500
Br1291     Br  0.05195062  0.70318683  0.79515505    -0.03200
H1292       H  0.05719260  0.70845594  0.86228067     0.08900
H1293       H  0.92851710  0.75495257  0.83997646     0.06900
Br1294     Br  0.93690513  0.75910122  0.90879156    -0.03700
C1295       C  0.16840344  0.86259797  0.51843453    -0.10300
C1296       C  0.13176627  0.86556256  0.50660449     0.05900
C1297       C  0.11531633  0.90120217  0.50350461    -0.04100
C1298       C  0.13593575  0.93319325  0.51146155    -0.08500
C1299       C  0.17318851  0.93054980  0.52242741     0.05000
C1300       C  0.18926196  0.89452031  0.52624463    -0.03500
Br1301     Br  0.23894222  0.88606371  0.54251934    -0.03200
H1302       H  0.18135576  0.83523096  0.52068898     0.08900
H1303       H  0.12271863  0.96035445  0.50876357     0.06900
Br1304     Br  0.06435381  0.90766817  0.48968317    -0.03700
C1305       C  0.09191855  0.15460264  0.47677718    -0.10300
C1306       C  0.05774682  0.14607572  0.99098101     0.05900
C1307       C  0.05613083  0.11661889  0.01274175    -0.04100
C1308       C  0.08846179  0.09589110  0.01958275    -0.08500
C1309       C  0.12299803  0.10422178  0.50539058     0.05000
C1310       C  0.12443223  0.13432491  0.48378547    -0.03500
Br1311     Br  0.16966409  0.15227262  0.46472773    -0.03200
H1312       H  0.09337021  0.17742757  0.46016580     0.08900
H1313       H  0.08670069  0.07375122  0.03678769     0.06900
Br1314     Br  0.01133888  0.10577141  0.03585936    -0.03700
C1315       C  0.28694489  0.00290266  0.92360296    -0.10300
C1316       C  0.25727388  0.02507458  0.93513884     0.05900
C1317       C  0.22661514  0.03287490  0.91538789    -0.04100
C1318       C  0.22551372  0.01775721  0.88507336    -0.08500
C1319       C  0.25423115  0.99409648  0.87392387     0.05000
C1320       C  0.28602389  0.98794139  0.89297733    -0.03500
Br1321     Br  0.32692991  0.95651146  0.87990525    -0.03200
H1322       H  0.31003884  0.99555333  0.93902550     0.08900
H1323       H  0.20079703  0.02280780  0.87072548     0.06900
Br1324     Br  0.18257785  0.05837093  0.92994225    -0.03700
C1325       C  0.24381068  0.93917709  0.62945211    -0.10300
C1326       C  0.26153031  0.97350221  0.62349679     0.05900
C1327       C  0.28145265  0.99155340  0.64778158    -0.04100
C1328       C  0.28111551  0.97656597  0.67808265    -0.08500
C1329       C  0.26102183  0.94358723  0.68477366     0.05000
C1330       C  0.24370435  0.92387559  0.65972095    -0.03500
Br1331     Br  0.21587930  0.87857060  0.66573091    -0.03200
H1332       H  0.22807177  0.92531769  0.61080460     0.08900
H1333       H  0.29509070  0.99190704  0.69690663     0.06900
Br1334     Br  0.30514382  0.03913167  0.64159489    -0.03700
C1335       C  0.96039552  0.11318512  0.75003901    -0.10300
C1336       C  0.95680663  0.15052933  0.73998494     0.05900
C1337       C  0.92050520  0.16652324  0.73810877    -0.04100
C1338       C  0.88921546  0.14515694  0.74614695    -0.08500
C1339       C  0.89311628  0.10815835  0.75657347     0.05000
C1340       C  0.92912960  0.09214332  0.75845261    -0.03500
Br1341     Br  0.93733573  0.04126137  0.77109335    -0.03200
H1342       H  0.98780848  0.10014137  0.75160186     0.08900
H1343       H  0.86161891  0.15789975  0.74498585     0.06900
Br1344     Br  0.91086910  0.21678123  0.72431263    -0.03700
C1345       C  0.02170305  0.26152203  0.83729572    -0.10300
C1346       C  0.05078713  0.23662698  0.82889995     0.05900
C1347       C  0.06684321  0.21370486  0.85218673    -0.04100
C1348       C  0.05125963  0.21346046  0.88234785    -0.08500
C1349       C  0.02027708  0.23622835  0.88992796     0.05000
C1350       C  0.00659910  0.26169253  0.86763118    -0.03500
Br1351     Br  0.96479017  0.29404114  0.87629042    -0.03200
H1352       H  0.00938867  0.27965262  0.81967888     0.08900
H1353       H  0.06207660  0.19385352  0.89953032     0.06900
Br1354     Br  0.10669386  0.17893438  0.84336065    -0.03700
C1355       C  0.96616507  0.22053633  0.63253469    -0.10300
C1356       C  0.99882306  0.24085698  0.64002734     0.05900
C1357       C  0.01465108  0.26403881  0.61716777    -0.04100
C1358       C  0.99980651  0.26385633  0.58652629    -0.08500
C1359       C  0.96892422  0.24112445  0.57830515     0.05000
C1360       C  0.95094827  0.22072054  0.60205302    -0.03500
Br1361     Br  0.90878106  0.18882765  0.59353849    -0.03200
H1362       H  0.95379644  0.20251867  0.65004112     0.08900
H1363       H  0.01370499  0.28004580  0.56858681     0.06900
Br1364     Br  0.05914650  0.29257700  0.62559470    -0.03700
C1365       C  0.20790686  0.12876614  0.63937417    -0.10300
C1366       C  0.19855123  0.13513798  0.60766471     0.05900
C1367       C  0.17243628  0.16373970  0.60064861    -0.04100
C1368       C  0.15406468  0.18284198  0.62510114    -0.08500
C1369       C  0.16106264  0.17422287  0.65682560     0.05000
C1370       C  0.18966901  0.14805155  0.66386506    -0.03500
Br1371     Br  0.20151303  0.13310937  0.70608261    -0.03200
H1372       H  0.22767961  0.10674487  0.64520662     0.08900
H1373       H  0.13205558  0.20262342  0.61921875     0.06900
Br1374     Br  0.15600442  0.17425410  0.55854231    -0.03700
C1375       C  0.15706271  0.10002313  0.77610747    -0.10300
C1376       C  0.12521128  0.09718833  0.75660281     0.05900
C1377       C  0.11394256  0.06137683  0.74567509    -0.04100
C1378       C  0.13478789  0.02966915  0.75400851    -0.08500
C1379       C  0.16735899  0.03278562  0.77257365     0.05000
C1380       C  0.17836410  0.06847767  0.78379235    -0.03500
Br1381     Br  0.22147810  0.07633312  0.81038134    -0.03200
H1382       H  0.16636839  0.12721400  0.78457203     0.08900
H1383       H  0.12580023  0.00240063  0.74546153     0.06900
Br1384     Br  0.07007861  0.05336704  0.72000534    -0.03700
C1385       C  0.17151650  0.59797957  0.49421133    -0.10300
C1386       C  0.17054259  0.59435488  0.52720949     0.05900
C1387       C  0.14298530  0.61427029  0.54407643    -0.04100
C1388       C  0.11776644  0.63791056  0.52801109    -0.08500
C1389       C  0.12070884  0.64362375  0.49525898     0.05000
C1390       C  0.14756158  0.62281940  0.47836681    -0.03500
Br1391     Br  0.15448509  0.62971896  0.93402750    -0.03200
H1392       H  0.19311092  0.58376301  0.48084697     0.08900
H1393       H  0.09800945  0.65446115  0.54161009     0.06900
Br1394     Br  0.14106573  0.61242592  0.58914849    -0.03700
C1395       C  0.38967735  0.84345859  0.73879268    -0.10300
C1396       C  0.40039825  0.81915177  0.76293227     0.05900
C1397       C  0.38748926  0.82630738  0.79385748    -0.04100
C1398       C  0.36152466  0.85487123  0.79953868    -0.08500
C1399       C  0.34807529  0.87690508  0.77491934     0.05000
C1400       C  0.36385214  0.87242945  0.74464491    -0.03500
Br1401     Br  0.34720508  0.90151429  0.70955312    -0.03200
H1402       H  0.39909478  0.83815157  0.71492561     0.08900
H1403       H  0.34929741  0.85773134  0.82277670     0.06900
Br1404     Br  0.40068901  0.79572179  0.82898764    -0.03700
C1405       C  0.33362889  0.66928127  0.62006890    -0.10300
C1406       C  0.31124046  0.63823083  0.62698541     0.05900
C1407       C  0.30428638  0.62977101  0.65889182    -0.04100
C1408       C  0.32354588  0.64907499  0.68292565    -0.08500
C1409       C  0.35022516  0.67642883  0.67560050     0.05000
C1410       C  0.35331477  0.68813333  0.64404547    -0.03500
Br1411     Br  0.38676286  0.72740596  0.63214111    -0.03200
H1412       H  0.33902848  0.67643471  0.59575356     0.08900
H1413       H  0.32054757  0.63989901  0.70704950     0.06900
Br1414     Br  0.27124378  0.58993286  0.67071095    -0.03700
C1415       C  0.12717060  0.32059230  0.78633229    -0.10300
C1416       C  0.12000133  0.32102147  0.75370080     0.05900
C1417       C  0.13602252  0.34948155  0.73555309    -0.04100
C1418       C  0.16018516  0.37580733  0.74989009    -0.08500
C1419       C  0.16976497  0.37340015  0.78209246     0.05000
C1420       C  0.15229213  0.34594642  0.80040772    -0.03500
Br1421     Br  0.16472643  0.33994018  0.84410802    -0.03200
H1422       H  0.11537221  0.29861855  0.80060354     0.08900
H1423       H  0.17435327  0.39591808  0.73519583     0.06900
Br1424     Br  0.12820813  0.35123959  0.69088958    -0.03700
C1425       C  0.39307813  0.55977941  0.75585070    -0.10300
C1426       C  0.38839081  0.59341029  0.77304964     0.05900
C1427       C  0.36222618  0.59431748  0.79812106    -0.04100
C1428       C  0.34151057  0.56234546  0.80500127    -0.08500
C1429       C  0.34682958  0.52896580  0.78812432     0.05000
C1430       C  0.37260601  0.52774221  0.76321724    -0.03500
Br1431     Br  0.37828226  0.48399064  0.73690713    -0.03200
H1432       H  0.41227039  0.55847860  0.73617041     0.08900
H1433       H  0.32124681  0.56347324  0.82390732     0.06900
Br1434     Br  0.35154707  0.63789452  0.82360264    -0.03700
C1435       C  0.23131148  0.48288678  0.65977624    -0.10300
C1436       C  0.26183686  0.47403032  0.64034793     0.05900
C1437       C  0.28847983  0.44727327  0.65107940    -0.04100
C1438       C  0.28548209  0.43202410  0.68116895    -0.08500
C1439       C  0.25682419  0.44328146  0.70146161     0.05000
C1440       C  0.22887447  0.46803618  0.69025658    -0.03500
Br1441     Br  0.18718454  0.48276527  0.71596066    -0.03200
H1442       H  0.21053255  0.50303802  0.65201663     0.08900
H1443       H  0.30709126  0.41305395  0.68949239     0.06900
Br1444     Br  0.33081857  0.43095220  0.62663027    -0.03700
C1445       C  0.23055059  0.49237115  0.90855980    -0.10300
C1446       C  0.26414025  0.49480077  0.89162790     0.05900
C1447       C  0.29361986  0.51732947  0.90433311    -0.04100
C1448       C  0.28988078  0.53442930  0.93387515    -0.08500
C1449       C  0.25776171  0.52917585  0.95177971     0.05000
C1450       C  0.22744055  0.50889150  0.93865207    -0.03500
Br1451     Br  0.18191247  0.50178367  0.96161718    -0.03200
H1452       H  0.20755060  0.47576696  0.89928970     0.08900
H1453       H  0.31340607  0.54968408  0.94392916     0.06900
Br1454     Br  0.34101597  0.52524675  0.88402153    -0.03700
C1455       C  0.35989254  0.11909903  0.54765876    -0.10300
C1456       C  0.34894399  0.09299396  0.52473468     0.05900
C1457       C  0.36749125  0.09306598  0.49533301    -0.04100
C1458       C  0.39347524  0.12145514  0.48833529    -0.08500
C1459       C  0.40176882  0.14965204  0.51051590     0.05000
C1460       C  0.38596716  0.14695977  0.54097446    -0.03500
Br1461     Br  0.39583885  0.18192347  0.57436437    -0.03200
H1462       H  0.34597209  0.11949650  0.57031228     0.08900
H1463       H  0.40505501  0.12305001  0.96483826     0.06900
Br1464     Br  0.35509565  0.05811494  0.46255524    -0.03700
C1465       C  0.36050569  0.27995681  0.88824511    -0.10300
C1466       C  0.35396810  0.29031004  0.91977992     0.05900
C1467       C  0.32353016  0.31444671  0.92649768    -0.04100
C1468       C  0.30454761  0.33218948  0.90178064    -0.08500
C1469       C  0.31459986  0.32559024  0.87024567     0.05000
C1470       C  0.34076257  0.29690349  0.86354223    -0.03500
Br1471     Br  0.35506086  0.28355887  0.82140156    -0.03200
H1472       H  0.38324593  0.26084423  0.88265350     0.08900
H1473       H  0.28400497  0.35367256  0.90733170     0.06900
Br1474     Br  0.30988654  0.32880764  0.96855564    -0.03700
C1475       C  0.35528613  0.36988988  0.53253828    -0.10300
C1476       C  0.39028311  0.37474155  0.51817323     0.05900
C1477       C  0.40321685  0.41113761  0.51249005    -0.04100
C1478       C  0.38130463  0.44183784  0.52153528    -0.08500
C1479       C  0.34598661  0.43725865  0.53553037     0.05000
C1480       C  0.33265584  0.40055574  0.54044215    -0.03500
Br1481     Br  0.28417994  0.38951481  0.55754121    -0.03200
H1482       H  0.34477088  0.34190248  0.53653262     0.08900
H1483       H  0.39175059  0.46940157  0.51723122     0.06900
Br1484     Br  0.45102840  0.42078465  0.49368239    -0.03700
C1485       C  0.90820999  0.33796071  0.52765074    -0.10300
C1486       C  0.90389128  0.32676297  0.49588589     0.05900
C1487       C  0.87574666  0.34375343  0.97760669    -0.04100
C1488       C  0.85064769  0.36897199  0.49168109    -0.08500
C1489       C  0.85245984  0.37712540  0.52415421     0.05000
C1490       C  0.88237506  0.36257930  0.54194868    -0.03500
Br1491     Br  0.88679478  0.37296776  0.58617570    -0.03200
H1492       H  0.92941327  0.32469340  0.54218237     0.08900
H1493       H  0.82788694  0.38008496  0.97759290     0.06900
Br1494     Br  0.86864968  0.33080486  0.93396618    -0.03700
C1495       C  0.59540593  0.31496843  0.98588672    -0.10300
C1496       C  0.56151094  0.32447280  0.00049419     0.05900
C1497       C  0.56126437  0.35306323  0.52359857    -0.04100
C1498       C  0.59447949  0.37198466  0.53129074    -0.08500
C1499       C  0.62870645  0.36272681  0.51669372     0.05000
C1500       C  0.62882932  0.33349342  0.99377524    -0.03500
Br1501     Br  0.67340705  0.31475225  0.97392252    -0.03200
H1502       H  0.59593597  0.29272198  0.96831195     0.08900
H1503       H  0.59359263  0.39353868  0.54943530     0.06900
Br1504     Br  0.51717296  0.36491351  0.54753687    -0.03700
C1505       C  0.61996237  0.13529585  0.78114891    -0.10300
C1506       C  0.62037370  0.14827946  0.74995086     0.05900
C1507       C  0.64365821  0.13046741  0.72780221    -0.04100
C1508       C  0.66776981  0.10171845  0.73741735    -0.08500
C1509       C  0.67027968  0.09152508  0.76927348     0.05000
C1510       C  0.64530391  0.10760614  0.79105072    -0.03500
Br1511     Br  0.64782246  0.09535680  0.83489127    -0.03200
H1512       H  0.60260245  0.14932957  0.79855118     0.08900
H1513       H  0.68736467  0.08999382  0.72052969     0.06900
Br1514     Br  0.64611995  0.14725708  0.68506201    -0.03700
C1515       C  0.46362800  0.36122673  0.76671641    -0.10300
C1516       C  0.46212868  0.32508514  0.75333326     0.05900
C1517       C  0.42653868  0.30856514  0.74771731    -0.04100
C1518       C  0.39392716  0.32855232  0.75496245    -0.08500
C1519       C  0.39564617  0.36402912  0.76923753     0.05000
C1520       C  0.43094290  0.38040657  0.77518656    -0.03500
Br1521     Br  0.43648943  0.42899866  0.79445668    -0.03200
H1522       H  0.49044354  0.37442412  0.77132373     0.08900
H1523       H  0.36694019  0.31543051  0.75085602     0.06900
Br1524     Br  0.41932027  0.25889764  0.73071155    -0.03700
C1525       C  0.52594881  0.20958516  0.84640481    -0.10300
C1526       C  0.55458987  0.23508945  0.83876715     0.05900
C1527       C  0.56783197  0.25984713  0.86228764    -0.04100
C1528       C  0.55090220  0.26032538  0.89197103    -0.08500
C1529       C  0.52061695  0.23660160  0.89889593     0.05000
C1530       C  0.50899700  0.21012271  0.87618165    -0.03500
Br1531     Br  0.46713672  0.17769485  0.88321702    -0.03200
H1532       H  0.51519514  0.19057437  0.82846835     0.08900
H1533       H  0.56002515  0.28100210  0.90924634     0.06900
Br1534     Br  0.60496470  0.29724574  0.85402824    -0.03700
C1535       C  0.51370581  0.21520287  0.63051515    -0.10300
C1536       C  0.50449598  0.24586939  0.64984857     0.05900
C1537       C  0.47784733  0.27243299  0.63906361    -0.04100
C1538       C  0.46347758  0.26960766  0.60857142    -0.08500
C1539       C  0.47534247  0.24094499  0.58835499     0.05000
C1540       C  0.49937795  0.21264695  0.59980535    -0.03500
Br1541     Br  0.51313399  0.16997850  0.57448351    -0.03200
H1542       H  0.53349787  0.19429699  0.63866745     0.08900
H1543       H  0.44446700  0.29105680  0.60006941     0.06900
Br1544     Br  0.46017367  0.31391878  0.66421500    -0.03700
C1545       C  0.69945943  0.31625214  0.67439004    -0.10300
C1546       C  0.66728298  0.29508026  0.66739802     0.05900
C1547       C  0.65860149  0.28746644  0.63538444    -0.04100
C1548       C  0.67927809  0.30433479  0.61130137    -0.08500
C1549       C  0.70846657  0.32934780  0.61846292     0.05000
C1550       C  0.71979828  0.33352305  0.65027151    -0.03500
Br1551     Br  0.76112277  0.36512549  0.66197959    -0.03200
H1552       H  0.70682643  0.32225231  0.69872509     0.08900
H1553       H  0.67006127  0.30077327  0.58707670     0.06900
Br1554     Br  0.61699192  0.25631435  0.62327070    -0.03700
C1555       C  0.86339588  0.59542181  0.74771336    -0.10300
C1556       C  0.85284215  0.60070297  0.77944032     0.05900
C1557       C  0.87008012  0.62964132  0.79698216    -0.04100
C1558       C  0.89562884  0.65373284  0.78246321    -0.08500
C1559       C  0.90377468  0.65041787  0.75013419     0.05000
C1560       C  0.88813053  0.62037611  0.73292768    -0.03500
Br1561     Br  0.89734229  0.61459723  0.68871328    -0.03200
H1562       H  0.84980530  0.57386929  0.73360100     0.08900
H1563       H  0.90707640  0.67691666  0.79604748     0.06900
Br1564     Br  0.85762320  0.63879468  0.84031782    -0.03700
C1565       C  0.64152510  0.44159487  0.77937955    -0.10300
C1566       C  0.67858570  0.43846370  0.79062737     0.05900
C1567       C  0.69368059  0.40225727  0.79556847    -0.04100
C1568       C  0.67224320  0.37053990  0.78808414    -0.08500
C1569       C  0.63590833  0.37392869  0.77551762     0.05000
C1570       C  0.62025943  0.40992086  0.77186907     0.01300
Br1571     Br  0.56959543  0.41772413  0.75770562    -0.03200
H1572       H  0.62896450  0.46895386  0.77600468     0.08900
H1573       H  0.68461003  0.34301637  0.79105150     0.06900
Br1574     Br  0.74277403  0.39353048  0.81292510    -0.03700
C1575       C  0.59285858  0.59377550  0.78060204    -0.10300
C1576       C  0.62731136  0.60794817  0.77012754     0.05900
C1577       C  0.62709923  0.64005506  0.75076971    -0.04100
C1578       C  0.59310091  0.65706101  0.74258609    -0.08500
C1579       C  0.55879658  0.64291911  0.75312084     0.05000
C1580       C  0.55883402  0.61082003  0.77228730    -0.03500
Br1581     Br  0.51376843  0.59064833  0.78994285    -0.03200
H1582       H  0.59236852  0.56956007  0.79579833     0.08900
H1583       H  0.59352101  0.68182015  0.72799937     0.06900
Br1584     Br  0.67180719  0.66447739  0.73655706    -0.03700
C1585       C  0.79262464  0.50372290  0.69062790    -0.10300
C1586       C  0.76482902  0.52986119  0.69958740     0.05900
C1587       C  0.73766360  0.54045239  0.67723091    -0.04100
C1588       C  0.73719768  0.52319953  0.64743740    -0.08500
C1589       C  0.76346610  0.49524076  0.63913705     0.05000
C1590       C  0.79231902  0.48662490  0.66064361    -0.03500
Br1591     Br  0.82924182  0.44888805  0.65171962    -0.03200
H1592       H  0.81360817  0.49511906  0.70767390     0.08900
H1593       H  0.71485751  0.53035032  0.63112262     0.06900
Br1594     Br  0.69762760  0.57439863  0.68738370    -0.03700
C1595       C  0.74847707  0.44770304  0.89423074    -0.10300
C1596       C  0.76936496  0.48023069  0.88840846     0.05900
C1597       C  0.79270270  0.49458708  0.91235956    -0.04100
C1598       C  0.79218802  0.47829630  0.94236255    -0.08500
C1599       C  0.76898356  0.44732902  0.94892682     0.05000
C1600       C  0.74842752  0.43098573  0.92393816    -0.03500
Br1601     Br  0.71611085  0.38889606  0.92949166    -0.03200
H1602       H  0.73021013  0.43649195  0.87597691     0.08900
H1603       H  0.80865679  0.49106294  0.96110533     0.06900
Br1604     Br  0.82216296  0.53876848  0.90620403    -0.03700
C1605       C  0.65280739  0.86535521  0.54422843    -0.10300
C1606       C  0.67334745  0.88011312  0.51926815     0.05900
C1607       C  0.66346912  0.86955286  0.98810780    -0.04100
C1608       C  0.63690884  0.84146338  0.98261651    -0.08500
C1609       C  0.61885723  0.82433177  0.50770792     0.05000
C1610       C  0.62524727  0.83809925  0.53860183    -0.03500
Br1611     Br  0.60029301  0.81774986  0.57432739    -0.03200
H1612       H  0.66006783  0.87298873  0.56827598     0.08900
H1613       H  0.63224319  0.83117586  0.95879892     0.06900
Br1614     Br  0.68789588  0.88919995  0.95196843    -0.03700
C1615       C  0.45787913  0.60967819  0.50631242    -0.10300
C1616       C  0.45916420  0.64903999  0.00819354     0.05900
C1617       C  0.42622536  0.66864966  0.01741961    -0.04100
C1618       C  0.39349440  0.64877057  0.02416013    -0.08500
C1619       C  0.39279926  0.60960272  0.52273839     0.05000
C1620       C  0.42530015  0.59008598  0.51370917    -0.03500
Br1621     Br  0.42657018  0.53681086  0.51020360    -0.03200
H1622       H  0.48232106  0.59383787  0.49895935     0.08900
H1623       H  0.36868246  0.66398127  0.03164828     0.06900
Br1624     Br  0.42346149  0.72210802  0.02307443    -0.03700
C1625       C  0.52175367  0.76068936  0.60324690    -0.10300
C1626       C  0.54994795  0.73483999  0.59464543     0.05900
C1627       C  0.56318430  0.70923288  0.61710522    -0.04100
C1628       C  0.54599831  0.70772260  0.64650527    -0.08500
C1629       C  0.51593559  0.73160303  0.65421275     0.05000
C1630       C  0.50503568  0.75959086  0.63298495    -0.03500
Br1631     Br  0.46534431  0.79434402  0.64215349    -0.03200
H1632       H  0.51152367  0.78075417  0.58620194     0.08900
H1633       H  0.55494630  0.68638840  0.66296410     0.06900
Br1634     Br  0.60099169  0.67242736  0.60787566    -0.03700
C1635       C  0.51902074  0.75430087  0.88298105    -0.10300
C1636       C  0.50240326  0.73132635  0.90534224     0.05900
C1637       C  0.46980967  0.71095093  0.89721384    -0.04100
C1638       C  0.45623937  0.71132655  0.86630878    -0.08500
C1639       C  0.47489565  0.73157395  0.84311932     0.05000
C1640       C  0.50553282  0.75467936  0.85199342    -0.03500
Br1641     Br  0.53032416  0.78741275  0.82315103    -0.03200
H1642       H  0.54383391  0.77029738  0.88913686     0.08900
H1643       H  0.43220423  0.69421705  0.86007885     0.06900
Br1644     Br  0.44330074  0.68126287  0.92721734    -0.03700
C1645       C  0.65834803  0.68686115  0.89283602    -0.10300
C1646       C  0.66573327  0.67660657  0.92417660     0.05900
C1647       C  0.69641087  0.65253665  0.93014708    -0.04100
C1648       C  0.71591340  0.63601701  0.90488970    -0.08500
C1649       C  0.70598731  0.64336351  0.87338003     0.05000
C1650       C  0.67832996  0.67089302  0.86760883    -0.03500
Br1651     Br  0.66251878  0.68389314  0.82587682    -0.03200
H1652       H  0.63506847  0.70548015  0.88776518     0.08900
H1653       H  0.73703093  0.61496063  0.90989838     0.06900
Br1654     Br  0.70961635  0.63669528  0.97183243    -0.03700
C1655       C  0.66734788  0.60154025  0.54052023    -0.10300
C1656       C  0.63186130  0.59771316  0.52640589     0.05900
C1657       C  0.61796269  0.56155161  0.51984853    -0.04100
C1658       C  0.63989046  0.53019985  0.52674425    -0.08500
C1659       C  0.67603703  0.53392309  0.53979656     0.05000
C1660       C  0.68972433  0.57024028  0.54681461    -0.03500
Br1661     Br  0.73824355  0.57974607  0.56514116    -0.03200
H1662       H  0.67851287  0.62921913  0.54542238     0.08900
H1663       H  0.62863682  0.50265595  0.52147338     0.06900
Br1664     Br  0.56886292  0.55298388  0.50242655    -0.03700
loop_ 
_geom_bond_atom_site_label_1 
_geom_bond_atom_site_label_2 
_geom_bond_distance 
_geom_bond_site_symmetry_2 
_ccdc_geom_bond_type 
O1           C16   1.265       .  A
O1           Al9   1.892       .  S
C2           O12   1.256       .  A
C2            O3   1.270       .  A
C2          C794   1.473       .  S
O3           Al5   1.941       .  S
O4            C6   1.254       .  A
O4           Al5   1.890       .  S
Al5         O845   1.883   1_554  S
Al5         O847   1.960   1_554  S
Al5         O846   1.779   1_554  S
C6          O851   1.254   1_554  A
C6          C824   1.474       .  S
O7           C17   1.266       .  A
O7           Al9   1.900       .  S
O8           C21   1.264       .  A
O8          Al18   1.915       .  S
Al9          O22   1.898       .  S
Al9          O19   1.899       .  S
Al9          O14   1.779       .  S
O10          C17   1.266       .  A
O10         Al18   1.930       .  S
O11          C20   1.260       .  A
O11         Al18   1.928       .  S
O12        Al850   1.860   1_554  S
O13          C20   1.256       .  A
O13        Al837   1.883       .  S
O14         Al18   1.789       .  S
O14        Al837   1.779       .  S
O15          C16   1.275       .  A
O15        Al837   1.960       .  S
C16         C814   1.490       .  S
C17         C784   1.488       .  S
Al18        O844   1.859       .  S
O19         C838   1.254       .  A
C20        C1609   1.473       .  S
C21          O22   1.259       .  A
C21         C804   1.466       .  S
O23          C38   1.261       .  A
O23         Al31   1.880       .  S
C24          O34   1.258       .  A
C24          O25   1.274       .  A
C24         C754   1.482       .  S
O25         Al27   1.965       .  S
O26          C28   1.255       .  A
O26         Al27   1.891       .  S
Al27         O35   1.892       .  S
Al27         O37   1.975       .  S
Al27         O36   1.775       .  S
C28          O41   1.261       .  A
C28         C744   1.485       .  S
O29          C39   1.262       .  A
O29         Al31   1.881       .  S
O30          C43   1.268       .  A
O30         Al40   1.929       .  S
Al31         O44   1.909       .  S
Al31         O41   1.924       .  S
Al31         O36   1.775       .  S
O32          C39   1.270       .  A
O32         Al40   1.948       .  S
O33          C42   1.267       .  A
O33         Al40   1.951       .  S
O34         Al40   1.870       .  S
O35          C42   1.258       .  A
O36         Al40   1.786       .  S
O37          C38   1.276       .  A
C38         C817   1.490       .  S
C39         C734   1.485       .  S
C42         C724   1.488       .  S
C43          O44   1.262       .  A
C43         C764   1.478       .  S
O45          C60   1.258       .  A
O45         Al53   1.890       .  S
C46          O56   1.275       .  A
C46          O47   1.258       .  A
C46         C694   1.482       .  S
O47         Al49   1.864       .  S
O48          C50   1.263       .  A
O48         Al49   1.920       .  S
Al49         O57   1.920       .  S
Al49         O59   1.917       .  S
Al49         O58   1.792       .  S
C50          O63   1.265       .  A
C50         C684   1.482       .  S
O51          C61   1.255       .  A
O51         Al53   1.897       .  S
O52          C65   1.275       .  A
O52         Al62   1.966       .  S
Al53         O66   1.882       .  S
Al53         O63   1.900       .  S
Al53         O58   1.778       .  S
O54          C61   1.255       .  A
O54         Al62   1.895       .  S
O55          C64   1.255       .  A
O55         Al62   1.887       .  S
O56         Al62   1.961       .  S
O57          C64   1.258       .  A
O58         Al62   1.781       .  S
O59          C60   1.266       .  A
C60         C704   1.471       .  S
C61         C737   1.476       .  S
C64         C674   1.471       .  S
C65          O66   1.261       .  A
C65         C714   1.490       .  S
O67          C82   1.261       .  A
O67         Al75   1.907       .  S
C68          O78   1.274       .  A
C68          O69   1.259       .  A
C68         C767   1.489       .  S
O69        Al903   1.872       .  S
O70          C72   1.270       .  A
O70         Al71   1.940       .  S
Al71         O79   1.942       .  S
Al71         O81   1.934       .  S
Al71        O901   1.872       .  S
Al71         O80   1.788       .  S
C72          O85   1.264       .  A
C72         C827   1.480       .  S
O73          C83   1.260       .  A
O73         Al75   1.922       .  S
O74          C87   1.278       .  A
O74         Al84   1.979       .  S
Al75         O88   1.879       .  S
Al75         O85   1.882       .  S
Al75         O80   1.774       .  S
O76          C83   1.256       .  A
O76         Al84   1.904       .  S
O77          C86   1.257       .  A
O77         Al84   1.888       .  S
O78        Al916   1.963       .  S
O79          C86   1.264       .  A
O80         Al84   1.776       .  S
O81          C82   1.268       .  A
C82         C757   1.486       .  S
C83         C667   1.493       .  S
Al84        O910   1.963   1_554  S
C86         C657   1.479       .  S
C87          O88   1.261       .  A
C87         C717   1.486       .  S
O89         C104   1.267       .  A
O89         Al97   1.888       .  S
C90         O100   1.255       .  A
C90          O91   1.265       .  A
C90         C707   1.465       .  S
O91         Al93   1.911       .  S
O92          C94   1.249       .  A
O92         Al93   1.878       .  S
Al93        O933   1.876   1_554  S
Al93        O935   1.953   1_554  S
Al93        O934   1.777   1_554  S
C94         O939   1.255   1_554  A
C94         C644   1.470       .  S
O95         C105   1.265       .  A
O95         Al97   1.893       .  S
O96         C109   1.266       .  A
O96        Al106   1.928       .  S
Al97        O110   1.901       .  S
Al97        O107   1.914       .  S
Al97        O102   1.780       .  S
O98         C105   1.274       .  A
O98        Al106   1.954       .  S
O99         C108   1.268       .  A
O99        Al106   1.956       .  S
O100       Al938   1.866   1_554  S
O101        C108   1.255       .  A
O101       Al925   1.876       .  S
O102       Al106   1.790       .  S
O102       Al925   1.777       .  S
O103        C104   1.274       .  A
O103       Al925   1.953       .  S
C104        C634   1.483       .  S
C105        C664   1.478       .  S
Al106       O932   1.866       .  S
O107        C926   1.255       .  A
C108       C1459   1.486       .  S
C109        O110   1.259       .  A
C109        C697   1.479       .  S
O111        C126   1.264       .  A
O111       Al119   1.883       .  S
C112        O122   1.257       .  A
C112        O113   1.269       .  A
C112        C607   1.478       .  S
O113       Al115   1.942       .  S
O114        C116   1.257       .  A
O114       Al115   1.902       .  S
Al115       O123   1.879       .  S
Al115       O125   1.957       .  S
Al115       O124   1.778       .  S
C116        O129   1.253       .  A
C116        C687   1.472       .  S
O117        C127   1.262       .  A
O117       Al119   1.882       .  S
O118        C131   1.270       .  A
O118       Al128   1.942       .  S
Al119       O132   1.883       .  S
Al119       O129   1.897       .  S
Al119       O124   1.775       .  S
O120        C127   1.270       .  A
O120       Al128   1.938       .  S
O121        C130   1.267       .  A
O121       Al128   1.947       .  S
O122       Al128   1.875       .  S
O123        C130   1.256       .  A
O124       Al128   1.792       .  S
O125        C126   1.273       .  A
C126        C637   1.481       .  S
C127        C597   1.464       .  S
C130        C587   1.480       .  S
C131        O132   1.254       .  A
C131        C614   1.490       .  S
O133        C148   1.260       .  A
O133       Al141   1.901       .  S
C134        O144   1.268       .  A
C134        O135   1.254       .  A
C134        C807   1.475       .  S
O135       Al137   1.860       .  S
O136        C138   1.272       .  A
O136       Al137   1.942       .  S
Al137       O145   1.939       .  S
Al137       O147   1.912       .  S
Al137       O146   1.782       .  S
C138        O151   1.265       .  A
C138        C747   1.479       .  S
O139        C149   1.259       .  A
O139       Al141   1.919       .  S
O140        C153   1.276       .  A
O140       Al150   1.965       .  S
Al141       O154   1.882       .  S
Al141       O151   1.892       .  S
Al141       O146   1.777       .  S
O142        C149   1.251       .  A
O142       Al150   1.886       .  S
O143        C152   1.256       .  A
O143       Al150   1.879       .  S
O144       Al150   1.931       .  S
O145        C152   1.264       .  A
O146       Al150   1.772       .  S
O147        C148   1.262       .  A
C148        C797   1.470       .  S
C149        C594   1.482       .  S
C152        C564   1.475       .  S
C153        O154   1.264       .  A
C153        C577   1.480       .  S
O155        C170   1.259       .  A
O155       Al163   1.898       .  S
C156        O166   1.272       .  A
C156        O157   1.259       .  A
C156        C617   1.471       .  S
O157       Al991   1.868       .  S
O158        C160   1.269       .  A
O158       Al159   1.939       .  S
Al159       O167   1.947       .  S
Al159       O169   1.940       .  S
Al159       O989   1.868       .  S
Al159       O168   1.793       .  S
C160        O173   1.263       .  A
C160        C647   1.482       .  S
O161        C171   1.255       .  A
O161       Al163   1.908       .  S
O162        C175   1.274       .  A
O162       Al172   1.954       .  S
Al163       O176   1.878       .  S
Al163       O173   1.886       .  S
Al163       O168   1.777       .  S
O164        C171   1.255       .  A
O164       Al172   1.897       .  S
O165        C174   1.254       .  A
O165       Al172   1.890       .  S
O166      Al1004   1.950       .  S
O167        C174   1.264       .  A
O168       Al172   1.780       .  S
O169        C170   1.272       .  A
C170        C604   1.487       .  S
C171        C787   1.472       .  S
Al172       O998   1.950   1_554  S
C174        C554   1.486       .  S
C175        O176   1.261       .  A
C175        C574   1.480       .  S
O177        C192   1.263       .  A
O177       Al185   1.884       .  S
C178        O188   1.258       .  A
C178        O179   1.269       .  A
C178        C514   1.474       .  S
O179       Al181   1.944       .  S
O180        C182   1.258       .  A
O180       Al181   1.894       .  S
Al181       O189   1.895       .  S
Al181       O191   1.956       .  S
Al181       O190   1.776       .  S
C182        O195   1.258       .  A
C182        C544   1.481       .  S
O183        C193   1.262   1_455  A
O183       Al185   1.881       .  S
O184        C197   1.266       .  A
O184       Al194   1.922       .  S
Al185       O198   1.906       .  S
Al185       O195   1.913       .  S
Al185       O190   1.775       .  S
O186        C193   1.270       .  A
O186       Al194   1.944   1_655  S
O187        C196   1.265       .  A
O187       Al194   1.944       .  S
O188       Al194   1.865       .  S
O189        C196   1.259       .  A
O190       Al194   1.784       .  S
O191        C192   1.273       .  A
C192        C537   1.485       .  S
C193        C504   1.485       .  S
C196        C584   1.482       .  S
C197        O198   1.261       .  A
C197        C524   1.473   1_455  S
O199        C214   1.263       .  A
O199       Al207   1.887       .  S
C200        O210   1.256       .  A
C200        O201   1.269       .  A
C200        C484   1.466       .  S
O201      Al1035   1.941       .  S
O202        C204   1.253       .  A
O202       Al203   1.885       .  S
Al203       O211   1.880       .  S
Al203       O213   1.953       .  S
Al203      O1033   1.941   1_554  S
Al203       O212   1.773       .  S
C204        O217   1.261       .  A
C204        C477   1.486       .  S
O205        C215   1.263       .  A
O205       Al207   1.886   1_565  S
O206        C219   1.265   1_545  A
O206       Al216   1.914       .  S
Al207       O220   1.909   1_545  S
Al207       O217   1.922       .  S
Al207       O212   1.778       .  S
O208        C215   1.269       .  A
O208       Al216   1.941   1_565  S
O209        C218   1.265       .  A
O209       Al216   1.950       .  S
O210      Al1048   1.863       .  S
O211        C218   1.257       .  A
O212       Al216   1.787       .  S
O213        C214   1.272       .  A
C214        C534   1.484       .  S
C215        C467   1.484       .  S
Al216      O1042   1.863   1_554  S
C218        C624   1.483       .  S
C219        O220   1.261       .  A
C219        C494   1.468       .  S
O221        C236   1.260       .  A
O221       Al229   1.906       .  S
C222        O232   1.273       .  A
C222        O223   1.254       .  A
C222        C447   1.477       .  S
O223      Al1057   1.848   1_554  S
O224       C1058   1.272       .  A
O224      Al1057   1.954   1_655  S
Al225       O233   1.957       .  S
Al225       O235   1.911       .  S
Al225      O1055   1.848       .  S
Al225      O1056   1.954   1_455  S
Al225       O234   1.781       .  S
C226        O239   1.261   1_655  A
C226       O1056   1.272       .  A
C226        C424   1.477       .  S
O227       C1069   1.260       .  A
O227       Al229   1.910       .  S
O228        C241   1.274       .  A
O228      Al1070   1.964       .  S
Al229       O242   1.898       .  S
Al229       O239   1.892       .  S
Al229       O234   1.776       .  S
O230        C237   1.259   1_554  A
O230       Al238   1.894   1_554  S
O231       C1072   1.258       .  A
O231       Al238   1.891       .  S
O232       Al238   1.964   1_554  S
O233        C240   1.268       .  A
O234      Al1070   1.779       .  S
O235        C236   1.264       .  A
C236        C454   1.464       .  S
C237       O1059   1.260       .  A
C237        C464   1.470   1_556  S
Al238      O1060   1.964       .  S
Al238      O1066   1.779       .  S
C240       O1063   1.258       .  A
C240       C1389   1.486       .  S
C241        O242   1.264       .  A
C241        C434   1.486       .  S
O243        C258   1.259       .  A
O243       Al251   1.891       .  S
C244        O254   1.271       .  A
C244        O245   1.256       .  A
C244        C497   1.483       .  S
O245       Al247   1.859       .  S
O246        C248   1.270       .  A
O246       Al247   1.937       .  S
Al247       O255   1.937       .  S
Al247       O257   1.912       .  S
Al247       O256   1.786       .  S
C248        O261   1.264       .  A
C248        C547   1.477   1_565  S
O249        C259   1.256       .  A
O249       Al251   1.904       .  S
O250        C263   1.277       .  A
O250       Al260   1.974       .  S
Al251       O264   1.884       .  S
Al251       O261   1.892       .  S
Al251       O256   1.774       .  S
O252        C259   1.256       .  A
O252       Al260   1.901       .  S
O253        C262   1.255       .  A
O253       Al260   1.873       .  S
O254       Al260   1.951       .  S
O255        C262   1.263       .  A
O256       Al260   1.774       .  S
O257        C258   1.263       .  A
C258        C487   1.473       .  S
C259        C414   1.471       .  S
C262        C567   1.470       .  S
C263        O264   1.262       .  A
C263        C437   1.494       .  S
O265        C280   1.261       .  A
O265       Al273   1.879       .  S
C266        O276   1.250       .  A
C266        O267   1.274       .  A
C266        C457   1.485       .  S
O267       Al269   1.970       .  S
O268        C270   1.258       .  A
O268       Al269   1.888       .  S
Al269       O277   1.888       .  S
Al269       O279   1.963       .  S
Al269       O278   1.775       .  S
C270        O283   1.264       .  A
C270        C404   1.472       .  S
O271        C281   1.259   1_655  A
O271       Al273   1.877       .  S
O272        C285   1.264       .  A
O272       Al282   1.910       .  S
Al273       O286   1.920       .  S
Al273       O283   1.934       .  S
Al273       O278   1.777       .  S
O274        C281   1.270       .  A
O274       Al282   1.936   1_455  S
O275        C284   1.269       .  A
O275       Al282   1.964       .  S
O276       Al282   1.851       .  S
O277        C284   1.257       .  A
O278       Al282   1.774       .  S
O279        C280   1.275       .  A
C280        C397   1.479       .  S
C281        C417   1.461       .  S
C284        C727   1.485       .  S
C285        O286   1.264       .  A
C285        C444   1.469   1_655  S
O287        C302   1.261       .  A
O287       Al295   1.874       .  S
C288        O298   1.255       .  A
C288        O289   1.269       .  A
C288        C377   1.473       .  S
O289      Al1123   1.935       .  S
O290        C292   1.255   1_556  A
O290       Al291   1.902   1_556  S
Al291       O299   1.882       .  S
Al291       O301   1.963       .  S
Al291      O1121   1.935   1_554  S
Al291       O300   1.775       .  S
C292        O305   1.260       .  A
C292        C427   1.485       .  S
O293        C303   1.263   1_565  A
O293       Al295   1.883       .  S
O294        C307   1.264       .  A
O294       Al304   1.916       .  S
Al295       O308   1.912       .  S
Al295       O305   1.925       .  S
Al295       O300   1.778       .  S
O296        C303   1.272       .  A
O296       Al304   1.937   1_545  S
O297        C306   1.264       .  A
O297       Al304   1.942       .  S
O298      Al1136   1.863       .  S
O299        C306   1.256       .  A
O300       Al304   1.785       .  S
O301        C302   1.276       .  A
C302        C394   1.484       .  S
C303        C364   1.476       .  S
Al304      O1130   1.863   1_554  S
C306        C774   1.477       .  S
C307        O308   1.262       .  A
C307        C384   1.479       .  S
O309        C324   1.262       .  A
O309       Al317   1.906       .  S
C310        O320   1.271       .  A
C310        O311   1.259       .  A
C310        C527   1.480       .  S
O311      Al1145   1.869   1_554  S
O312       C1146   1.270       .  A
O312      Al1145   1.942   1_455  S
Al313       O321   1.943       .  S
Al313       O323   1.914       .  S
Al313      O1143   1.869       .  S
Al313      O1144   1.942   1_655  S
Al313       O322   1.783       .  S
C314        O327   1.260   1_455  A
C314       O1144   1.270       .  A
C314        C474   1.471       .  S
O315       C1157   1.260       .  A
O315       Al317   1.909       .  S
O316        C329   1.272       .  A
O316      Al1158   1.959       .  S
Al317       O330   1.892       .  S
Al317       O327   1.883       .  S
Al317       O322   1.772       .  S
O318        C325   1.257   1_554  A
O318       Al326   1.893   1_554  S
O319       C1160   1.258       .  A
O319       Al326   1.887       .  S
O320       Al326   1.953   1_554  S
O321        C328   1.266       .  A
O322      Al1158   1.773       .  S
O323        C324   1.265       .  A
C324        C517   1.470   1_655  S
C325       O1147   1.260       .  A
C325        C367   1.472   1_556  S
Al326      O1148   1.959       .  S
Al326      O1154   1.773       .  S
C328       O1151   1.258       .  A
C328       C1486   1.478       .  S
C329        O330   1.263       .  A
C329        C354   1.483       .  S
O331        C346   1.260   1_545  A
O331       Al339   1.898       .  S
C332        O342   1.271       .  A
C332        O333   1.259       .  A
C332        C387   1.474       .  S
O333       Al335   1.867       .  S
O334        C336   1.267       .  A
O334       Al335   1.935   1_565  S
Al335       O343   1.937       .  S
Al335       O345   1.920       .  S
Al335       O344   1.788       .  S
C336        O349   1.264       .  A
C336        C407   1.492       .  S
O337        C347   1.258       .  A
O337       Al339   1.907       .  S
O338        C351   1.271       .  A
O338       Al348   1.944       .  S
Al339       O352   1.895       .  S
Al339       O349   1.899   1_545  S
Al339       O344   1.776       .  S
O340        C347   1.256       .  A
O340       Al348   1.885       .  S
O341        C350   1.254       .  A
O341       Al348   1.882       .  S
O342       Al348   1.952       .  S
O343        C350   1.262       .  A
O344       Al348   1.776       .  S
O345        C346   1.266   1_545  A
C346        C374   1.469       .  S
C347        C507   1.472       .  S
C350        C677   1.471       .  S
C351        O352   1.263       .  A
C351        C357   1.484       .  S
C353        C354   1.405       .  A
C353        C358   1.404       .  A
C353        H360   1.084       .  S
C354        C355   1.410       .  A
C355        C356   1.401       .  A
C355       Br362   1.915       .  S
C356        C357   1.404       .  A
C356        H361   1.084       .  S
C357        C358   1.412       .  A
C358       Br359   1.920       .  S
C363        C364   1.404       .  A
C363        C368   1.395       .  A
C363        H370   1.084       .  S
C364        C365   1.413       .  A
C365        C366   1.397       .  A
C365       Br372   1.923   1_544  S
C366        C367   1.403       .  A
C366        H371   1.084   1_554  S
C367        C368   1.410       .  A
C368       Br369   1.921       .  S
C373        C374   1.398       .  A
C373        C378   1.399       .  A
C373        H380   1.084   1_565  S
C374        C375   1.414       .  A
C375        C376   1.394       .  A
C375       Br382   1.919       .  S
C376        C377   1.396       .  A
C376        H381   1.083       .  S
C377        C378   1.416       .  A
C378       Br379   1.921       .  S
C383        C384   1.408   1_545  A
C383        C388   1.398       .  A
C383        H390   1.084       .  S
C384        C385   1.408       .  A
C385        C386   1.402   1_565  A
C385       Br392   1.918       .  S
C386        C387   1.407       .  A
C386        H391   1.084   1_545  S
C387        C388   1.405       .  A
C388       Br389   1.918       .  S
C393        C394   1.404       .  A
C393        C398   1.402       .  A
C393        H400   1.083       .  S
C394        C395   1.416       .  A
C395        C396   1.400       .  A
C395       Br402   1.923       .  S
C396        C397   1.402       .  A
C396        H401   1.084       .  S
C397        C398   1.412       .  A
C398       Br399   1.920       .  S
C403        C404   1.400       .  A
C403        C408   1.398       .  A
C403        H410   1.084       .  S
C404        C405   1.403       .  A
C405        C406   1.402       .  A
C405       Br412   1.918       .  S
C406        C407   1.411       .  A
C406        H411   1.082       .  S
C407        C408   1.419       .  A
C408       Br409   1.924       .  S
C413        C414   1.405       .  A
C413        C418   1.402       .  A
C413        H420   1.084       .  S
C414        C415   1.412       .  A
C415        C416   1.390       .  A
C415       Br422   1.913       .  S
C416        C417   1.394       .  A
C416        H421   1.085       .  S
C417        C418   1.409       .  A
C418       Br419   1.919       .  S
C423        C424   1.404       .  A
C423        C428   1.405       .  A
C423        H430   1.083       .  S
C424       C1257   1.407       .  A
C425        C426   1.399       .  A
C425       C1256   1.407   1_554  A
C425       Br432   1.915       .  S
C426        C427   1.405       .  A
C426        H431   1.084       .  S
C427       C1260   1.413   1_554  A
C428       C1259   1.413       .  A
C428       Br429   1.919       .  S
C433        C434   1.403       .  A
C433        C438   1.404       .  A
C433        H440   1.084       .  S
C434        C435   1.411       .  A
C435        C436   1.407       .  A
C435       Br442   1.916       .  S
C436        C437   1.405       .  A
C436        H441   1.083       .  S
C437        C438   1.416       .  A
C438       Br439   1.922       .  S
C443        C444   1.394       .  A
C443        C448   1.398       .  A
C443        H450   1.084   1_455  S
C444        C445   1.412       .  A
C445        C446   1.398       .  A
C445       Br452   1.912       .  S
C446        C447   1.397       .  A
C446        H451   1.083       .  S
C447        C448   1.420       .  A
C448       Br449   1.922   1_455  S
C453        C454   1.391       .  A
C453        C458   1.394       .  A
C453        H460   1.083       .  S
C454        C455   1.409   1_455  A
C455        C456   1.401       .  A
C455       Br462   1.916       .  S
C456        C457   1.403       .  A
C456        H461   1.083       .  S
C457        C458   1.426   1_655  A
C458       Br459   1.926       .  S
C463        C464   1.401       .  A
C463        C468   1.398       .  A
C463        H470   1.084       .  S
C464        C465   1.406       .  A
C465        C466   1.397       .  A
C465       Br472   1.920   1_554  S
C466        C467   1.408       .  A
C466        H471   1.083       .  S
C467        C468   1.416       .  A
C468       Br469   1.922       .  S
C473        C478   1.397       .  A
C473       C1306   1.398       .  A
C473        H480   1.084       .  S
C474        C475   1.408       .  A
C474       C1305   1.398       .  A
C475        C476   1.399       .  A
C475       Br482   1.922       .  S
C476       C1309   1.408       .  A
C476        H481   1.083       .  S
C477        C478   1.420   1_554  A
C477       C1308   1.408       .  A
C478       Br479   1.923       .  S
C483        C484   1.407       .  A
C483        C488   1.400   1_545  A
C483        H490   1.082   1_545  S
C484        C485   1.403       .  A
C485        C486   1.390       .  A
C485       Br492   1.915       .  S
C486        C487   1.406   1_545  A
C486        H491   1.084       .  S
C487        C488   1.407       .  A
C488       Br489   1.918       .  S
C493        C494   1.406       .  A
C493        C498   1.401       .  A
C493        H500   1.084       .  S
C494        C495   1.401       .  A
C495        C496   1.398       .  A
C495       Br502   1.920   1_565  S
C496        C497   1.412       .  A
C496        H501   1.084       .  S
C497        C498   1.409       .  A
C498       Br499   1.919       .  S
C503        C504   1.408       .  A
C503        C508   1.396       .  A
C503        H510   1.083       .  S
C504        C505   1.415       .  A
C505        C506   1.399       .  A
C505       Br512   1.921       .  S
C506        C507   1.403       .  A
C506        H511   1.084       .  S
C507        C508   1.406       .  A
C508       Br509   1.919       .  S
C513        C514   1.409       .  A
C513        C518   1.398       .  A
C513        H520   1.084       .  S
C514        C515   1.407       .  A
C515        C516   1.398       .  A
C515       Br522   1.920       .  S
C516        C517   1.406       .  A
C516        H521   1.084       .  S
C517        C518   1.403       .  A
C518       Br519   1.918   1_455  S
C523        C524   1.407       .  A
C523        C528   1.400       .  A
C523        H530   1.084       .  S
C524        C525   1.403   1_655  A
C525        C526   1.401   1_455  A
C525       Br532   1.918       .  S
C526        C527   1.410       .  A
C526        H531   1.083   1_655  S
C527        C528   1.408       .  A
C528       Br529   1.919       .  S
C533        C534   1.405       .  A
C533        C538   1.403       .  A
C533        H540   1.084       .  S
C534        C535   1.412       .  A
C535        C536   1.400       .  A
C535       Br542   1.917       .  S
C536        C537   1.405       .  A
C536        H541   1.084       .  S
C537        C538   1.414       .  A
C538       Br539   1.919       .  S
C543        C544   1.405       .  A
C543        C548   1.396       .  A
C543        H550   1.084       .  S
C544        C545   1.414       .  A
C545        C546   1.399       .  A
C545       Br552   1.921       .  S
C546        C547   1.404       .  A
C546        H551   1.084       .  S
C547        C548   1.411       .  A
C548       Br549   1.921       .  S
C553        C554   1.408   1_556  A
C553        C558   1.403       .  A
C553        H560   1.081       .  S
C554        C555   1.406       .  A
C555        C556   1.409       .  A
C555       Br562   1.916       .  S
C556        C557   1.411   1_554  A
C556        H561   1.083       .  S
C557       C1072   1.486       .  S
C557        C558   1.405       .  A
C558      Br1391   1.917       .  S
Br559      C1390   1.917       .  S
C563        C564   1.400       .  A
C563        C568   1.404       .  A
C563        H570   1.083       .  S
C564        C565   1.414       .  A
C565        C566   1.395       .  A
C565       Br572   1.912       .  S
C566        C567   1.396       .  A
C566        H571   1.084       .  S
C567        C568   1.413       .  A
C568       Br569   1.914       .  S
C573        C574   1.402       .  A
C573        C578   1.400       .  A
C573        H580   1.084       .  S
C574        C575   1.413       .  A
C575        C576   1.402       .  A
C575       Br582   1.921       .  S
C576        C577   1.403       .  A
C576        H581   1.084       .  S
C577        C578   1.411       .  A
C578       Br579   1.916       .  S
C583        C584   1.407       .  A
C583        C588   1.402       .  A
C583        H590   1.083       .  S
C584        C585   1.405       .  A
C585        C586   1.408       .  A
C585       Br592   1.916       .  S
C586        C587   1.410       .  A
C586        H591   1.083       .  S
C587        C588   1.406       .  A
C588       Br589   1.918       .  S
C593        C594   1.408       .  A
C593        C598   1.397       .  A
C593        H600   1.083       .  S
C594        C595   1.419       .  A
C595        C596   1.395       .  A
C595       Br602   1.923       .  S
C596        C597   1.397       .  A
C596        H601   1.083       .  S
C597        C598   1.405       .  A
C598       Br599   1.921       .  S
C603        C604   1.403       .  A
C603        C608   1.406       .  A
C603        H610   1.083       .  S
C604        C605   1.421       .  A
C605        C606   1.398       .  A
C605       Br612   1.922       .  S
C606        C607   1.396       .  A
C606        H611   1.084       .  S
C607        C608   1.413       .  A
C608       Br609   1.918       .  S
C613        C614   1.404       .  A
C613        C618   1.406       .  A
C613        H620   1.083       .  S
C614        C615   1.425       .  A
C615        C616   1.395       .  A
C615       Br622   1.924       .  S
C616        C617   1.392       .  A
C616        H621   1.084       .  S
C617        C618   1.412       .  A
C618       Br619   1.917       .  S
C623        C624   1.395       .  A
C623        C628   1.396       .  A
C623        H630   1.084       .  S
C624        C625   1.415   1_554  A
C625        C626   1.410       .  A
C625       Br632   1.910       .  S
C626        C627   1.402   1_556  A
C626       H1463   1.083       .  S
C627        C940   1.486       .  S
C627        C628   1.417       .  A
C628       Br629   1.910       .  S
H631       C1458   1.083       .  S
C633        C634   1.405       .  A
C633        C638   1.401       .  A
C633        H640   1.084       .  S
C634        C635   1.412       .  A
C635        C636   1.401       .  A
C635       Br642   1.917       .  S
C636        C637   1.405       .  A
C636        H641   1.084       .  S
C637        C638   1.411       .  A
C638       Br639   1.917       .  S
C643        C644   1.404       .  A
C643        C648   1.397       .  A
C643        H650   1.083       .  S
C644        C645   1.403       .  A
C645        C646   1.396       .  A
C645       Br652   1.920   1_554  S
C646        C647   1.406       .  A
C646        H651   1.070       .  S
C647        C648   1.412       .  A
C648       Br649   1.922       .  S
C653        C654   1.410   1_554  A
C653        C658   1.407       .  A
C653        H660   1.084       .  S
C654       C1160   1.478       .  S
C654       C1487   1.405       .  A
C655       C1486   1.405       .  A
C655       C1488   1.399       .  A
C655       Br662   1.919       .  S
C656        C657   1.407   1_556  A
C656       C1487   1.399       .  A
C656       H1493   1.082       .  S
C657        C658   1.405       .  A
C658       Br659   1.915       .  S
H661       C1488   1.082       .  S
C663        C664   1.401       .  A
C663        C668   1.402       .  A
C663        H670   1.084       .  S
C664       C1497   1.408       .  A
C665        C666   1.400       .  A
C665       C1496   1.408       .  A
C665       Br672   1.921       .  S
C666        C667   1.409       .  A
C666        H671   1.083       .  S
C667       C1500   1.419   1_554  A
C668       C1499   1.419       .  A
C668       Br669   1.919       .  S
C673        C674   1.407       .  A
C673        C678   1.403       .  A
C673        H680   1.084       .  S
C674        C675   1.404       .  A
C675        C676   1.399       .  A
C675       Br682   1.918       .  S
C676        C677   1.406       .  A
C676        H681   1.084       .  S
C677        C678   1.404       .  A
C678       Br679   1.917       .  S
C683        C684   1.405       .  A
C683        C688   1.397       .  A
C683        H690   1.083       .  S
C684        C685   1.419       .  A
C685        C686   1.397       .  A
C685       Br692   1.924       .  S
C686        C687   1.399       .  A
C686        H691   1.084       .  S
C687        C688   1.410       .  A
C688       Br689   1.920       .  S
C693        C694   1.411       .  A
C693        C698   1.404       .  A
C693        H700   1.084       .  S
C694        C695   1.407       .  A
C695        C696   1.400       .  A
C695       Br702   1.919       .  S
C696        C697   1.408       .  A
C696        H701   1.084       .  S
C697        C698   1.405       .  A
C698       Br699   1.918       .  S
C703        C704   1.400       .  A
C703        C708   1.399       .  A
C703        H710   1.083       .  S
C704        C705   1.418       .  A
C705        C706   1.392       .  A
C705       Br712   1.923       .  S
C706        C707   1.395       .  A
C706        H711   1.084       .  S
C707        C708   1.411       .  A
C708       Br709   1.919       .  S
C713        C714   1.404       .  A
C713        C718   1.406       .  A
C713        H720   1.083       .  S
C714        C715   1.415       .  A
C715        C716   1.405       .  A
C715       Br722   1.921       .  S
C716        C717   1.403       .  A
C716        H721   1.084       .  S
C717        C718   1.413       .  A
C718       Br719   1.918       .  S
C723        C724   1.411       .  A
C723        C728   1.409       .  A
C723        H730   1.084       .  S
C724        C725   1.408       .  A
C725        C726   1.404       .  A
C725       Br732   1.919       .  S
C726        C727   1.408       .  A
C726        H731   1.083       .  S
C727        C728   1.406       .  A
C728       Br729   1.915       .  S
C733        C734   1.407       .  A
C733        C738   1.396       .  A
C733        H740   1.083       .  S
C734        C735   1.415       .  A
C735        C736   1.400       .  A
C735       Br742   1.921       .  S
C736        C737   1.404       .  A
C736        H741   1.084       .  S
C737        C738   1.408       .  A
C738       Br739   1.921       .  S
C743        C744   1.406       .  A
C743        C748   1.401       .  A
C743        H750   1.084       .  S
C744        C745   1.416       .  A
C745        C746   1.398       .  A
C745       Br752   1.922       .  S
C746        C747   1.402       .  A
C746        H751   1.084       .  S
C747        C748   1.411       .  A
C748       Br749   1.922       .  S
C753        C754   1.410       .  A
C753        C758   1.405       .  A
C753        H760   1.084       .  S
C754        C755   1.406       .  A
C755        C756   1.401       .  A
C755       Br762   1.918       .  S
C756        C757   1.410       .  A
C756        H761   1.084       .  S
C757        C758   1.407       .  A
C758       Br759   1.917       .  S
C763        C764   1.406       .  A
C763        C768   1.400       .  A
C763        H770   1.083       .  S
C764        C765   1.404       .  A
C765        C766   1.405       .  A
C765       Br772   1.918       .  S
C766        C767   1.413       .  A
C766        H771   1.083       .  S
C767        C768   1.408       .  A
C768       Br769   1.913       .  S
C773        C774   1.399       .  A
C773        C778   1.403       .  A
C773        H780   1.084       .  S
C774       C1607   1.414   1_554  A
C775        C776   1.398       .  A
C775       C1606   1.414       .  A
C775       Br782   1.908       .  S
C776       C1609   1.395       .  A
C776        H781   1.084       .  S
C777        C852   1.473       .  S
C777        C778   1.413       .  A
C777       C1608   1.395   1_554  A
C778       Br779   1.913       .  S
C783        C788   1.397       .  A
C783       C1616   1.406       .  A
C783        H790   1.083   1_554  S
C784        C785   1.420       .  A
C784       C1615   1.406       .  A
C785        C786   1.400       .  A
C785       Br792   1.922       .  S
C786       C1619   1.399       .  A
C786        H791   1.084       .  S
C787        C788   1.404       .  A
C787       C1618   1.399       .  A
C788       Br789   1.906       .  S
C793        C794   1.410       .  A
C793        C798   1.400       .  A
C793        H800   1.084       .  S
C794        C795   1.406       .  A
C795        C796   1.395       .  A
C795       Br802   1.919       .  S
C796        C797   1.406       .  A
C796        H801   1.084       .  S
C797        C798   1.404       .  A
C798       Br799   1.918       .  S
C803        C804   1.396       .  A
C803        C808   1.398       .  A
C803        H810   1.084       .  S
C804        C805   1.412       .  A
C805        C806   1.395       .  A
C805       Br812   1.919       .  S
C806        C807   1.399       .  A
C806        H811   1.084       .  S
C807        C808   1.418       .  A
C808       Br809   1.921       .  S
C813        C814   1.406       .  A
C813        C818   1.404       .  A
C813        H820   1.084       .  S
C814        C815   1.412       .  A
C815        C816   1.405       .  A
C815       Br822   1.918       .  S
C816        C817   1.408       .  A
C816        H821   1.084       .  S
C817        C818   1.412       .  A
C818       Br819   1.916       .  S
C823        C824   1.403       .  A
C823        C828   1.398       .  A
C823        H830   1.084       .  S
C824        C825   1.408       .  A
C825        C826   1.396       .  A
C825       Br832   1.921       .  S
C826        C827   1.406       .  A
C826        H831   1.083       .  S
C827        C828   1.414       .  A
C828       Br829   1.923       .  S
O833        C848   1.265       .  A
O833       Al841   1.892       .  S
C834        O844   1.256       .  A
C834        O835   1.270       .  A
C834       C1626   1.473       .  S
O835       Al837   1.941       .  S
O836        C838   1.254       .  A
O836       Al837   1.890       .  S
C838       C1656   1.474       .  S
O839        C849   1.266       .  A
O839       Al841   1.900       .  S
O840        C853   1.264       .  A
O840       Al850   1.915       .  S
Al841       O854   1.898       .  S
Al841       O851   1.899       .  S
Al841       O846   1.779       .  S
O842        C849   1.266       .  A
O842       Al850   1.930       .  S
O843        C852   1.260       .  A
O843       Al850   1.928   1_554  S
O845        C852   1.256   1_556  A
O846       Al850   1.789       .  S
O847        C848   1.275       .  A
C848       C1646   1.490       .  S
C849       C1616   1.489   1_556  S
C853        O854   1.259       .  A
C853       C1636   1.466       .  S
O855        C870   1.261       .  A
O855       Al863   1.880       .  S
C856        O866   1.258       .  A
C856        O857   1.274       .  A
C856       C1586   1.482       .  S
O857       Al859   1.965       .  S
O858        C860   1.255       .  A
O858       Al859   1.891       .  S
Al859       O867   1.892       .  S
Al859       O869   1.976       .  S
Al859       O868   1.775       .  S
C860        O873   1.261       .  A
C860       C1576   1.485       .  S
O861        C871   1.262       .  A
O861       Al863   1.881       .  S
O862        C875   1.268       .  A
O862       Al872   1.929       .  S
Al863       O876   1.909       .  S
Al863       O873   1.925       .  S
Al863       O868   1.775       .  S
O864        C871   1.270       .  A
O864       Al872   1.948       .  S
O865        C874   1.267       .  A
O865       Al872   1.951       .  S
O866       Al872   1.870       .  S
O867        C874   1.258       .  A
O868       Al872   1.786       .  S
O869        C870   1.276       .  A
C870       C1649   1.490       .  S
C871       C1566   1.485       .  S
C874       C1556   1.488       .  S
C875        O876   1.262       .  A
C875       C1596   1.478       .  S
O877        C892   1.258       .  A
O877       Al885   1.890       .  S
C878        O888   1.275       .  A
C878        O879   1.258       .  A
C878       C1526   1.482       .  S
O879       Al881   1.864       .  S
O880        C882   1.263       .  A
O880       Al881   1.920       .  S
Al881       O889   1.920       .  S
Al881       O891   1.917       .  S
Al881       O890   1.792       .  S
C882        O895   1.265       .  A
C882       C1516   1.483       .  S
O883        C893   1.255       .  A
O883       Al885   1.897       .  S
O884        C897   1.275       .  A
O884       Al894   1.966       .  S
Al885       O898   1.882       .  S
Al885       O895   1.900       .  S
Al885       O890   1.778       .  S
O886        C893   1.255       .  A
O886       Al894   1.895       .  S
O887        C896   1.255       .  A
O887       Al894   1.886       .  S
O888       Al894   1.961       .  S
O889        C896   1.258       .  A
O890       Al894   1.781       .  S
O891        C892   1.266       .  A
C892       C1536   1.471       .  S
C893       C1569   1.476       .  S
C896       C1506   1.471       .  S
C897        O898   1.261       .  A
C897       C1546   1.490       .  S
O899        C914   1.261       .  A
O899       Al907   1.907       .  S
C900        O910   1.274       .  A
C900        O901   1.259   1_556  A
C900       C1599   1.489       .  S
O902        C904   1.270       .  A
O902       Al903   1.940       .  S
Al903       O911   1.942       .  S
Al903       O913   1.934       .  S
Al903       O912   1.788       .  S
C904        O917   1.264       .  A
C904       C1659   1.480       .  S
O905        C915   1.260       .  A
O905       Al907   1.922       .  S
O906        C919   1.278       .  A
O906       Al916   1.979       .  S
Al907       O920   1.879       .  S
Al907       O917   1.882       .  S
Al907       O912   1.774       .  S
O908        C915   1.256       .  A
O908       Al916   1.904       .  S
O909        C918   1.257       .  A
O909       Al916   1.888       .  S
O911        C918   1.264       .  A
O912       Al916   1.776       .  S
O913        C914   1.268       .  A
C914       C1589   1.486       .  S
C915       C1499   1.493       .  S
C918       C1489   1.479       .  S
C919        O920   1.261       .  A
C919       C1549   1.486       .  S
O921        C936   1.267       .  A
O921       Al929   1.888       .  S
C922        O932   1.255       .  A
C922        O923   1.265       .  A
C922       C1539   1.465       .  S
O923       Al925   1.912       .  S
O924        C926   1.249       .  A
O924       Al925   1.878       .  S
C926       C1476   1.470       .  S
O927        C937   1.265       .  A
O927       Al929   1.893       .  S
O928        C941   1.266       .  A
O928       Al938   1.928       .  S
Al929       O942   1.901       .  S
Al929       O939   1.914       .  S
Al929       O934   1.780       .  S
O930        C937   1.274       .  A
O930       Al938   1.954       .  S
O931        C940   1.268   1_556  A
O931       Al938   1.956       .  S
O933        C940   1.255   1_556  A
O934       Al938   1.790       .  S
O935        C936   1.274       .  A
C936       C1466   1.483       .  S
C937       C1496   1.478   1_556  S
C941        O942   1.259       .  A
C941       C1529   1.479       .  S
O943        C958   1.264       .  A
O943       Al951   1.883       .  S
C944        O954   1.257       .  A
C944        O945   1.269       .  A
C944       C1439   1.478       .  S
O945       Al947   1.942       .  S
O946        C948   1.257       .  A
O946       Al947   1.902       .  S
Al947       O955   1.879       .  S
Al947       O957   1.957       .  S
Al947       O956   1.778       .  S
C948        O961   1.253       .  A
C948       C1519   1.472       .  S
O949        C959   1.262       .  A
O949       Al951   1.882       .  S
O950        C963   1.270       .  A
O950       Al960   1.942       .  S
Al951       O964   1.883       .  S
Al951       O961   1.897       .  S
Al951       O956   1.775       .  S
O952        C959   1.270       .  A
O952       Al960   1.938       .  S
O953        C962   1.267       .  A
O953       Al960   1.947       .  S
O954       Al960   1.875       .  S
O955        C962   1.256       .  A
O956       Al960   1.792       .  S
O957        C958   1.273       .  A
C958       C1469   1.481       .  S
C959       C1429   1.464       .  S
C962       C1419   1.481       .  S
C963        O964   1.254       .  A
C963       C1446   1.490       .  S
O965        C980   1.260       .  A
O965       Al973   1.901       .  S
C966        O976   1.268       .  A
C966        O967   1.254       .  A
C966       C1639   1.475       .  S
O967       Al969   1.860       .  S
O968        C970   1.272       .  A
O968       Al969   1.942       .  S
Al969       O977   1.939       .  S
Al969       O979   1.912       .  S
Al969       O978   1.782       .  S
C970        O983   1.265       .  A
C970       C1579   1.479       .  S
O971        C981   1.259       .  A
O971       Al973   1.919       .  S
O972        C985   1.276       .  A
O972       Al982   1.965       .  S
Al973       O986   1.882       .  S
Al973       O983   1.892       .  S
Al973       O978   1.777       .  S
O974        C981   1.251       .  A
O974       Al982   1.885       .  S
O975        C984   1.256       .  A
O975       Al982   1.879       .  S
O976       Al982   1.931       .  S
O977        C984   1.264       .  A
O978       Al982   1.772       .  S
O979        C980   1.262       .  A
C980       C1629   1.470       .  S
C981       C1426   1.482       .  S
C984       C1396   1.475       .  S
C985        O986   1.264       .  A
C985       C1409   1.480       .  S
O987       C1002   1.259       .  A
O987       Al995   1.899       .  S
C988        O998   1.272       .  A
C988        O989   1.259   1_556  A
C988       C1449   1.471       .  S
O990        C992   1.269       .  A
O990       Al991   1.939       .  S
Al991       O999   1.947       .  S
Al991      O1001   1.940       .  S
Al991      O1000   1.793       .  S
C992       O1005   1.263       .  A
C992       C1479   1.482       .  S
O993       C1003   1.255       .  A
O993       Al995   1.908       .  S
O994       C1007   1.274       .  A
O994      Al1004   1.954       .  S
Al995      O1008   1.878       .  S
Al995      O1005   1.886       .  S
Al995      O1000   1.777       .  S
O996       C1003   1.255       .  A
O996      Al1004   1.897       .  S
O997       C1006   1.254       .  A
O997      Al1004   1.890       .  S
O999       C1006   1.264       .  A
O1000     Al1004   1.780       .  S
O1001      C1002   1.272       .  A
C1002      C1436   1.487       .  S
C1003      C1619   1.472       .  S
C1006      C1386   1.486       .  S
C1007      O1008   1.261       .  A
C1007      C1406   1.480       .  S
O1009      C1024   1.263       .  A
O1009     Al1017   1.884       .  S
C1010      O1020   1.258       .  A
C1010      O1011   1.269       .  A
C1010      C1346   1.474       .  S
O1011     Al1013   1.944       .  S
O1012      C1014   1.258       .  A
O1012     Al1013   1.894       .  S
Al1013     O1021   1.895       .  S
Al1013     O1023   1.956       .  S
Al1013     O1022   1.776       .  S
C1014      O1027   1.258       .  A
C1014      C1376   1.481       .  S
O1015      C1025   1.262   1_455  A
O1015     Al1017   1.881       .  S
O1016      C1029   1.266       .  A
O1016     Al1026   1.922       .  S
Al1017     O1030   1.906       .  S
Al1017     O1027   1.913       .  S
Al1017     O1022   1.775       .  S
O1018      C1025   1.270       .  A
O1018     Al1026   1.945   1_655  S
O1019      C1028   1.265       .  A
O1019     Al1026   1.944       .  S
O1020     Al1026   1.865       .  S
O1021      C1028   1.259       .  A
O1022     Al1026   1.784       .  S
O1023      C1024   1.273       .  A
C1024      C1369   1.485       .  S
C1025      C1336   1.485       .  S
C1028      C1416   1.482       .  S
C1029      O1030   1.261       .  A
C1029      C1356   1.473   1_455  S
O1031      C1046   1.263       .  A
O1031     Al1039   1.887       .  S
C1032      O1042   1.256       .  A
C1032      O1033   1.269       .  A
C1032      C1316   1.466       .  S
O1034      C1036   1.253       .  A
O1034     Al1035   1.885       .  S
Al1035     O1043   1.880       .  S
Al1035     O1045   1.953       .  S
Al1035     O1044   1.773       .  S
C1036      O1049   1.261       .  A
C1036      C1309   1.486       .  S
O1037      C1047   1.263       .  A
O1037     Al1039   1.886   1_565  S
O1038      C1051   1.265   1_545  A
O1038     Al1048   1.914       .  S
Al1039     O1052   1.909   1_545  S
Al1039     O1049   1.922       .  S
Al1039     O1044   1.778       .  S
O1040      C1047   1.269       .  A
O1040     Al1048   1.941   1_565  S
O1041      C1050   1.265       .  A
O1041     Al1048   1.950       .  S
O1043      C1050   1.257       .  A
O1044     Al1048   1.787       .  S
O1045      C1046   1.272       .  A
C1046      C1366   1.484       .  S
C1047      C1299   1.484       .  S
C1050      C1456   1.483       .  S
C1051      O1052   1.261       .  A
C1051      C1326   1.468       .  S
O1053      C1068   1.260       .  A
O1053     Al1061   1.906       .  S
C1054      O1064   1.273       .  A
C1054      O1055   1.254       .  A
C1054      C1279   1.477       .  S
Al1057     O1065   1.957       .  S
Al1057     O1067   1.911       .  S
Al1057     O1066   1.781       .  S
C1058      O1071   1.261   1_655  A
C1058      C1256   1.477       .  S
O1059     Al1061   1.910       .  S
O1060      C1073   1.274       .  A
Al1061     O1074   1.898       .  S
Al1061     O1071   1.892       .  S
Al1061     O1066   1.776       .  S
O1062      C1069   1.259       .  A
O1062     Al1070   1.893       .  S
O1063     Al1070   1.891       .  S
O1064     Al1070   1.964       .  S
O1065      C1072   1.268       .  A
O1067      C1068   1.264       .  A
C1068      C1286   1.464       .  S
C1069      C1296   1.470       .  S
C1073      O1074   1.264       .  A
C1073      C1266   1.486       .  S
O1075      C1090   1.259       .  A
O1075     Al1083   1.891       .  S
C1076      O1086   1.271       .  A
C1076      O1077   1.256       .  A
C1076      C1329   1.483       .  S
O1077     Al1079   1.859       .  S
O1078      C1080   1.270       .  A
O1078     Al1079   1.937       .  S
Al1079     O1087   1.937       .  S
Al1079     O1089   1.912       .  S
Al1079     O1088   1.786       .  S
C1080      O1093   1.264       .  A
C1080      C1379   1.477   1_565  S
O1081      C1091   1.256       .  A
O1081     Al1083   1.904       .  S
O1082      C1095   1.277       .  A
O1082     Al1092   1.974       .  S
Al1083     O1096   1.884       .  S
Al1083     O1093   1.892       .  S
Al1083     O1088   1.774       .  S
O1084      C1091   1.256       .  A
O1084     Al1092   1.901       .  S
O1085      C1094   1.255       .  A
O1085     Al1092   1.873       .  S
O1086     Al1092   1.951       .  S
O1087      C1094   1.263       .  A
O1088     Al1092   1.774       .  S
O1089      C1090   1.263       .  A
C1090      C1319   1.473       .  S
C1091      C1246   1.471       .  S
C1094      C1399   1.470       .  S
C1095      O1096   1.262       .  A
C1095      C1269   1.494       .  S
O1097      C1112   1.261       .  A
O1097     Al1105   1.879       .  S
C1098      O1108   1.250       .  A
C1098      O1099   1.274       .  A
C1098      C1289   1.485       .  S
O1099     Al1101   1.970       .  S
O1100      C1102   1.258       .  A
O1100     Al1101   1.888       .  S
Al1101     O1109   1.888       .  S
Al1101     O1111   1.963       .  S
Al1101     O1110   1.775       .  S
C1102      O1115   1.264       .  A
C1102      C1236   1.472       .  S
O1103      C1113   1.259   1_655  A
O1103     Al1105   1.877       .  S
O1104      C1117   1.264       .  A
O1104     Al1114   1.910       .  S
Al1105     O1118   1.920       .  S
Al1105     O1115   1.934       .  S
Al1105     O1110   1.777       .  S
O1106      C1113   1.270       .  A
O1106     Al1114   1.936   1_455  S
O1107      C1116   1.269       .  A
O1107     Al1114   1.964       .  S
O1108     Al1114   1.851       .  S
O1109      C1116   1.257       .  A
O1110     Al1114   1.774       .  S
O1111      C1112   1.275       .  A
C1112      C1229   1.479       .  S
C1113      C1249   1.461       .  S
C1116      C1559   1.485       .  S
C1117      O1118   1.264       .  A
C1117      C1276   1.469   1_655  S
O1119      C1134   1.261       .  A
O1119     Al1127   1.874       .  S
C1120      O1130   1.255       .  A
C1120      O1121   1.269       .  A
C1120      C1209   1.473       .  S
O1122      C1124   1.255       .  A
O1122     Al1123   1.902       .  S
Al1123     O1131   1.882       .  S
Al1123     O1133   1.963       .  S
Al1123     O1132   1.775       .  S
C1124      O1137   1.260       .  A
C1124      C1259   1.485       .  S
O1125      C1135   1.263   1_565  A
O1125     Al1127   1.883       .  S
O1126      C1139   1.264       .  A
O1126     Al1136   1.916       .  S
Al1127     O1140   1.912       .  S
Al1127     O1137   1.925       .  S
Al1127     O1132   1.778       .  S
O1128      C1135   1.272       .  A
O1128     Al1136   1.937   1_545  S
O1129      C1138   1.264       .  A
O1129     Al1136   1.942       .  S
O1131      C1138   1.256       .  A
O1132     Al1136   1.785       .  S
O1133      C1134   1.276       .  A
C1134      C1226   1.484       .  S
C1135      C1196   1.476       .  S
C1138      C1606   1.477       .  S
C1139      O1140   1.262       .  A
C1139      C1216   1.480       .  S
O1141      C1156   1.262       .  A
O1141     Al1149   1.906       .  S
C1142      O1152   1.271       .  A
C1142      O1143   1.259       .  A
C1142      C1359   1.479       .  S
Al1145     O1153   1.943       .  S
Al1145     O1155   1.914       .  S
Al1145     O1154   1.783       .  S
C1146      O1159   1.260   1_455  A
C1146      C1306   1.471       .  S
O1147     Al1149   1.909       .  S
O1148      C1161   1.272       .  A
Al1149     O1162   1.892       .  S
Al1149     O1159   1.883       .  S
Al1149     O1154   1.772       .  S
O1150      C1157   1.257       .  A
O1150     Al1158   1.893       .  S
O1151     Al1158   1.887       .  S
O1152     Al1158   1.953       .  S
O1153      C1160   1.266       .  A
O1155      C1156   1.265       .  A
C1156      C1349   1.470   1_655  S
C1157      C1199   1.472       .  S
C1161      O1162   1.263       .  A
C1161      C1186   1.483       .  S
O1163      C1178   1.260   1_545  A
O1163     Al1171   1.898       .  S
C1164      O1174   1.272       .  A
C1164      O1165   1.259       .  A
C1164      C1219   1.474       .  S
O1165     Al1167   1.867       .  S
O1166      C1168   1.267       .  A
O1166     Al1167   1.935   1_565  S
Al1167     O1175   1.937       .  S
Al1167     O1177   1.920       .  S
Al1167     O1176   1.788       .  S
C1168      O1181   1.264       .  A
C1168      C1239   1.492       .  S
O1169      C1179   1.258       .  A
O1169     Al1171   1.907       .  S
O1170      C1183   1.271       .  A
O1170     Al1180   1.944       .  S
Al1171     O1184   1.895       .  S
Al1171     O1181   1.899   1_545  S
Al1171     O1176   1.776       .  S
O1172      C1179   1.256       .  A
O1172     Al1180   1.885       .  S
O1173      C1182   1.254       .  A
O1173     Al1180   1.882       .  S
O1174     Al1180   1.952       .  S
O1175      C1182   1.262       .  A
O1176     Al1180   1.776       .  S
O1177      C1178   1.266   1_545  A
C1178      C1206   1.469       .  S
C1179      C1339   1.472       .  S
C1182      C1509   1.471       .  S
C1183      O1184   1.263       .  A
C1183      C1189   1.484       .  S
C1185      C1186   1.405       .  A
C1185      C1190   1.404       .  A
C1185      H1192   1.084       .  S
C1186      C1187   1.410       .  A
C1187      C1188   1.401       .  A
C1187     Br1194   1.915       .  S
C1188      C1189   1.404       .  A
C1188      H1193   1.084       .  S
C1189      C1190   1.412       .  A
C1190     Br1191   1.920       .  S
C1195      C1196   1.404       .  A
C1195      C1200   1.395       .  A
C1195      H1202   1.084       .  S
C1196      C1197   1.413       .  A
C1197      C1198   1.397       .  A
C1197     Br1204   1.923   1_545  S
C1198      C1199   1.403       .  A
C1198      H1203   1.084       .  S
C1199      C1200   1.410       .  A
C1200     Br1201   1.921       .  S
C1205      C1206   1.398       .  A
C1205      C1210   1.399       .  A
C1205      H1212   1.084   1_565  S
C1206      C1207   1.414       .  A
C1207      C1208   1.394       .  A
C1207     Br1214   1.919       .  S
C1208      C1209   1.396       .  A
C1208      H1213   1.083       .  S
C1209      C1210   1.416       .  A
C1210     Br1211   1.921       .  S
C1215      C1216   1.408   1_545  A
C1215      C1220   1.398       .  A
C1215      H1222   1.084       .  S
C1216      C1217   1.408       .  A
C1217      C1218   1.402   1_565  A
C1217     Br1224   1.918       .  S
C1218      C1219   1.407       .  A
C1218      H1223   1.084   1_545  S
C1219      C1220   1.405       .  A
C1220     Br1221   1.918       .  S
C1225      C1226   1.404       .  A
C1225      C1230   1.402       .  A
C1225      H1232   1.083       .  S
C1226      C1227   1.416       .  A
C1227      C1228   1.400       .  A
C1227     Br1234   1.923       .  S
C1228      C1229   1.402       .  A
C1228      H1233   1.084       .  S
C1229      C1230   1.412       .  A
C1230     Br1231   1.920       .  S
C1235      C1236   1.400       .  A
C1235      C1240   1.398       .  A
C1235      H1242   1.084       .  S
C1236      C1237   1.403       .  A
C1237      C1238   1.402       .  A
C1237     Br1244   1.918       .  S
C1238      C1239   1.411       .  A
C1238      H1243   1.082       .  S
C1239      C1240   1.419       .  A
C1240     Br1241   1.924       .  S
C1245      C1246   1.405       .  A
C1245      C1250   1.402       .  A
C1245      H1252   1.084       .  S
C1246      C1247   1.412       .  A
C1247      C1248   1.390       .  A
C1247     Br1254   1.913       .  S
C1248      C1249   1.394       .  A
C1248      H1253   1.085       .  S
C1249      C1250   1.409       .  A
C1250     Br1251   1.919       .  S
C1255      C1256   1.404       .  A
C1255      C1260   1.405       .  A
C1255      H1262   1.083       .  S
C1257      C1258   1.399       .  A
C1257     Br1264   1.915       .  S
C1258      C1259   1.405       .  A
C1258      H1263   1.084       .  S
C1260     Br1261   1.919       .  S
C1265      C1266   1.403       .  A
C1265      C1270   1.404       .  A
C1265      H1272   1.084       .  S
C1266      C1267   1.411       .  A
C1267      C1268   1.407       .  A
C1267     Br1274   1.916       .  S
C1268      C1269   1.405       .  A
C1268      H1273   1.083       .  S
C1269      C1270   1.416       .  A
C1270     Br1271   1.922       .  S
C1275      C1276   1.394       .  A
C1275      C1280   1.398       .  A
C1275      H1282   1.084   1_455  S
C1276      C1277   1.412       .  A
C1277      C1278   1.398       .  A
C1277     Br1284   1.912       .  S
C1278      C1279   1.397       .  A
C1278      H1283   1.083       .  S
C1279      C1280   1.420       .  A
C1280     Br1281   1.922   1_455  S
C1285      C1286   1.391       .  A
C1285      C1290   1.394       .  A
C1285      H1292   1.083       .  S
C1286      C1287   1.409   1_455  A
C1287      C1288   1.401       .  A
C1287     Br1294   1.916       .  S
C1288      C1289   1.403       .  A
C1288      H1293   1.083       .  S
C1289      C1290   1.426   1_655  A
C1290     Br1291   1.926       .  S
C1295      C1296   1.401       .  A
C1295      C1300   1.398       .  A
C1295      H1302   1.084       .  S
C1296      C1297   1.406       .  A
C1297      C1298   1.397       .  A
C1297     Br1304   1.920       .  S
C1298      C1299   1.408       .  A
C1298      H1303   1.083       .  S
C1299      C1300   1.416       .  A
C1300     Br1301   1.922       .  S
C1305      C1310   1.397       .  A
C1305      H1312   1.084       .  S
C1306      C1307   1.408   1_556  A
C1307      C1308   1.399       .  A
C1307     Br1314   1.922       .  S
C1308      H1313   1.083       .  S
C1309      C1310   1.420       .  A
C1310     Br1311   1.923       .  S
C1315      C1316   1.407       .  A
C1315      C1320   1.400   1_545  A
C1315      H1322   1.082   1_545  S
C1316      C1317   1.403       .  A
C1317      C1318   1.390       .  A
C1317     Br1324   1.915       .  S
C1318      C1319   1.406   1_545  A
C1318      H1323   1.084       .  S
C1319      C1320   1.407       .  A
C1320     Br1321   1.918       .  S
C1325      C1326   1.406       .  A
C1325      C1330   1.401       .  A
C1325      H1332   1.084       .  S
C1326      C1327   1.401       .  A
C1327      C1328   1.398       .  A
C1327     Br1334   1.920   1_565  S
C1328      C1329   1.412       .  A
C1328      H1333   1.084       .  S
C1329      C1330   1.409       .  A
C1330     Br1331   1.919       .  S
C1335      C1336   1.408       .  A
C1335      C1340   1.396       .  A
C1335      H1342   1.083       .  S
C1336      C1337   1.415       .  A
C1337      C1338   1.399       .  A
C1337     Br1344   1.921       .  S
C1338      C1339   1.403       .  A
C1338      H1343   1.084       .  S
C1339      C1340   1.406       .  A
C1340     Br1341   1.919       .  S
C1345      C1346   1.409       .  A
C1345      C1350   1.398       .  A
C1345      H1352   1.084       .  S
C1346      C1347   1.407       .  A
C1347      C1348   1.398       .  A
C1347     Br1354   1.920       .  S
C1348      C1349   1.406       .  A
C1348      H1353   1.084       .  S
C1349      C1350   1.403       .  A
C1350     Br1351   1.918   1_455  S
C1355      C1356   1.407       .  A
C1355      C1360   1.400       .  A
C1355      H1362   1.084       .  S
C1356      C1357   1.403   1_655  A
C1357      C1358   1.401   1_455  A
C1357     Br1364   1.918       .  S
C1358      C1359   1.410       .  A
C1358      H1363   1.083   1_655  S
C1359      C1360   1.408       .  A
C1360     Br1361   1.919       .  S
C1365      C1366   1.405       .  A
C1365      C1370   1.403       .  A
C1365      H1372   1.084       .  S
C1366      C1367   1.412       .  A
C1367      C1368   1.400       .  A
C1367     Br1374   1.917       .  S
C1368      C1369   1.405       .  A
C1368      H1373   1.084       .  S
C1369      C1370   1.414       .  A
C1370     Br1371   1.919       .  S
C1375      C1376   1.405       .  A
C1375      C1380   1.396       .  A
C1375      H1382   1.084       .  S
C1376      C1377   1.414       .  A
C1377      C1378   1.399       .  A
C1377     Br1384   1.921       .  S
C1378      C1379   1.404       .  A
C1378      H1383   1.084       .  S
C1379      C1380   1.411       .  A
C1380     Br1381   1.921       .  S
C1385      C1386   1.408       .  A
C1385      C1390   1.403       .  A
C1385      H1392   1.081       .  S
C1386      C1387   1.406       .  A
C1387      C1388   1.409       .  A
C1387     Br1394   1.916       .  S
C1388      C1389   1.411       .  A
C1388      H1393   1.083       .  S
C1389      C1390   1.405       .  A
C1395      C1396   1.400       .  A
C1395      C1400   1.404       .  A
C1395      H1402   1.083       .  S
C1396      C1397   1.414       .  A
C1397      C1398   1.395       .  A
C1397     Br1404   1.912       .  S
C1398      C1399   1.396       .  A
C1398      H1403   1.084       .  S
C1399      C1400   1.413       .  A
C1400     Br1401   1.914       .  S
C1405      C1406   1.402       .  A
C1405      C1410   1.400       .  A
C1405      H1412   1.084       .  S
C1406      C1407   1.413       .  A
C1407      C1408   1.402       .  A
C1407     Br1414   1.921       .  S
C1408      C1409   1.403       .  A
C1408      H1413   1.084       .  S
C1409      C1410   1.412       .  A
C1410     Br1411   1.916       .  S
C1415      C1416   1.407       .  A
C1415      C1420   1.402       .  A
C1415      H1422   1.083       .  S
C1416      C1417   1.405       .  A
C1417      C1418   1.408       .  A
C1417     Br1424   1.916       .  S
C1418      C1419   1.410       .  A
C1418      H1423   1.083       .  S
C1419      C1420   1.406       .  A
C1420     Br1421   1.918       .  S
C1425      C1426   1.408       .  A
C1425      C1430   1.397       .  A
C1425      H1432   1.083       .  S
C1426      C1427   1.419       .  A
C1427      C1428   1.395       .  A
C1427     Br1434   1.923       .  S
C1428      C1429   1.397       .  A
C1428      H1433   1.083       .  S
C1429      C1430   1.405       .  A
C1430     Br1431   1.921       .  S
C1435      C1436   1.403       .  A
C1435      C1440   1.406       .  A
C1435      H1442   1.083       .  S
C1436      C1437   1.421       .  A
C1437      C1438   1.398       .  A
C1437     Br1444   1.922       .  S
C1438      C1439   1.396       .  A
C1438      H1443   1.084       .  S
C1439      C1440   1.413       .  A
C1440     Br1441   1.918       .  S
C1445      C1446   1.404       .  A
C1445      C1450   1.406       .  A
C1445      H1452   1.083       .  S
C1446      C1447   1.425       .  A
C1447      C1448   1.395       .  A
C1447     Br1454   1.924       .  S
C1448      C1449   1.392       .  A
C1448      H1453   1.084       .  S
C1449      C1450   1.412       .  A
C1450     Br1451   1.917       .  S
C1455      C1456   1.395       .  A
C1455      C1460   1.396       .  A
C1455      H1462   1.084       .  S
C1456      C1457   1.415       .  A
C1457      C1458   1.410       .  A
C1457     Br1464   1.910       .  S
C1458      C1459   1.402       .  A
C1459      C1460   1.417       .  A
C1460     Br1461   1.910       .  S
C1465      C1466   1.405       .  A
C1465      C1470   1.401       .  A
C1465      H1472   1.084       .  S
C1466      C1467   1.412       .  A
C1467      C1468   1.401       .  A
C1467     Br1474   1.917       .  S
C1468      C1469   1.405       .  A
C1468      H1473   1.084       .  S
C1469      C1470   1.411       .  A
C1470     Br1471   1.917       .  S
C1475      C1476   1.404       .  A
C1475      C1480   1.397       .  A
C1475      H1482   1.083       .  S
C1476      C1477   1.403       .  A
C1477      C1478   1.396       .  A
C1477     Br1484   1.920       .  S
C1478      C1479   1.406       .  A
C1478      H1483   1.071       .  S
C1479      C1480   1.412       .  A
C1480     Br1481   1.922       .  S
C1485      C1486   1.410       .  A
C1485      C1490   1.407       .  A
C1485      H1492   1.084       .  S
C1487     Br1494   1.919       .  S
C1488      C1489   1.407       .  A
C1489      C1490   1.405       .  A
C1490     Br1491   1.915       .  S
C1495      C1496   1.401   1_556  A
C1495      C1500   1.402       .  A
C1495      H1502   1.084       .  S
C1497      C1498   1.400       .  A
C1497     Br1504   1.921       .  S
C1498      C1499   1.409       .  A
C1498      H1503   1.083       .  S
C1500     Br1501   1.919       .  S
C1505      C1506   1.407       .  A
C1505      C1510   1.403       .  A
C1505      H1512   1.084       .  S
C1506      C1507   1.404       .  A
C1507      C1508   1.399       .  A
C1507     Br1514   1.918       .  S
C1508      C1509   1.406       .  A
C1508      H1513   1.084       .  S
C1509      C1510   1.404       .  A
C1510     Br1511   1.917       .  S
C1515      C1516   1.405       .  A
C1515      C1520   1.397       .  A
C1515      H1522   1.083       .  S
C1516      C1517   1.419       .  A
C1517      C1518   1.397       .  A
C1517     Br1524   1.924       .  S
C1518      C1519   1.399       .  A
C1518      H1523   1.084       .  S
C1519      C1520   1.410       .  A
C1520     Br1521   1.920       .  S
C1525      C1526   1.411       .  A
C1525      C1530   1.404       .  A
C1525      H1532   1.084       .  S
C1526      C1527   1.407       .  A
C1527      C1528   1.400       .  A
C1527     Br1534   1.919       .  S
C1528      C1529   1.408       .  A
C1528      H1533   1.084       .  S
C1529      C1530   1.405       .  A
C1530     Br1531   1.918       .  S
C1535      C1536   1.400       .  A
C1535      C1540   1.399       .  A
C1535      H1542   1.083       .  S
C1536      C1537   1.418       .  A
C1537      C1538   1.392       .  A
C1537     Br1544   1.923       .  S
C1538      C1539   1.395       .  A
C1538      H1543   1.084       .  S
C1539      C1540   1.411       .  A
C1540     Br1541   1.919       .  S
C1545      C1546   1.404       .  A
C1545      C1550   1.406       .  A
C1545      H1552   1.083       .  S
C1546      C1547   1.415       .  A
C1547      C1548   1.405       .  A
C1547     Br1554   1.921       .  S
C1548      C1549   1.403       .  A
C1548      H1553   1.084       .  S
C1549      C1550   1.413       .  A
C1550     Br1551   1.918       .  S
C1555      C1556   1.411       .  A
C1555      C1560   1.409       .  A
C1555      H1562   1.084       .  S
C1556      C1557   1.408       .  A
C1557      C1558   1.404       .  A
C1557     Br1564   1.919       .  S
C1558      C1559   1.408       .  A
C1558      H1563   1.083       .  S
C1559      C1560   1.406       .  A
C1560     Br1561   1.915       .  S
C1565      C1566   1.407       .  A
C1565      C1570   1.396       .  A
C1565      H1572   1.083       .  S
C1566      C1567   1.415       .  A
C1567      C1568   1.400       .  A
C1567     Br1574   1.921       .  S
C1568      C1569   1.404       .  A
C1568      H1573   1.084       .  S
C1569      C1570   1.408       .  A
C1570     Br1571   1.921       .  S
C1575      C1576   1.406       .  A
C1575      C1580   1.401       .  A
C1575      H1582   1.084       .  S
C1576      C1577   1.416       .  A
C1577      C1578   1.398       .  A
C1577     Br1584   1.922       .  S
C1578      C1579   1.402       .  A
C1578      H1583   1.084       .  S
C1579      C1580   1.411       .  A
C1580     Br1581   1.922       .  S
C1585      C1586   1.410       .  A
C1585      C1590   1.405       .  A
C1585      H1592   1.084       .  S
C1586      C1587   1.406       .  A
C1587      C1588   1.401       .  A
C1587     Br1594   1.918       .  S
C1588      C1589   1.410       .  A
C1588      H1593   1.084       .  S
C1589      C1590   1.407       .  A
C1590     Br1591   1.917       .  S
C1595      C1596   1.406       .  A
C1595      C1600   1.400       .  A
C1595      H1602   1.083       .  S
C1596      C1597   1.404       .  A
C1597      C1598   1.405       .  A
C1597     Br1604   1.918       .  S
C1598      C1599   1.413       .  A
C1598      H1603   1.083       .  S
C1599      C1600   1.408       .  A
C1600     Br1601   1.913       .  S
C1605      C1606   1.399       .  A
C1605      C1610   1.403       .  A
C1605      H1612   1.084       .  S
C1607      C1608   1.398       .  A
C1607     Br1614   1.908       .  S
C1608      H1613   1.084       .  S
C1609      C1610   1.413       .  A
C1610     Br1611   1.913       .  S
C1615      C1620   1.397       .  A
C1615      H1622   1.083       .  S
C1616      C1617   1.420       .  A
C1617      C1618   1.400       .  A
C1617     Br1624   1.922       .  S
C1618      H1623   1.084       .  S
C1619      C1620   1.404       .  A
C1620     Br1621   1.906       .  S
C1625      C1626   1.410       .  A
C1625      C1630   1.400       .  A
C1625      H1632   1.084       .  S
C1626      C1627   1.406       .  A
C1627      C1628   1.395       .  A
C1627     Br1634   1.919       .  S
C1628      C1629   1.406       .  A
C1628      H1633   1.084       .  S
C1629      C1630   1.404       .  A
C1630     Br1631   1.918       .  S
C1635      C1636   1.396       .  A
C1635      C1640   1.398       .  A
C1635      H1642   1.084       .  S
C1636      C1637   1.412       .  A
C1637      C1638   1.395       .  A
C1637     Br1644   1.919       .  S
C1638      C1639   1.399       .  A
C1638      H1643   1.084       .  S
C1639      C1640   1.418       .  A
C1640     Br1641   1.921       .  S
C1645      C1646   1.406       .  A
C1645      C1650   1.404       .  A
C1645      H1652   1.084       .  S
C1646      C1647   1.412       .  A
C1647      C1648   1.405       .  A
C1647     Br1654   1.918       .  S
C1648      C1649   1.408       .  A
C1648      H1653   1.084       .  S
C1649      C1650   1.412       .  A
C1650     Br1651   1.916       .  S
C1655      C1656   1.403       .  A
C1655      C1660   1.398       .  A
C1655      H1662   1.084       .  S
C1656      C1657   1.408       .  A
C1657      C1658   1.396       .  A
C1657     Br1664   1.921       .  S
C1658      C1659   1.406       .  A
C1658      H1663   1.083       .  S
C1659      C1660   1.414       .  A
C1660     Br1661   1.923       .  S
