geometry optimzed in LAMMPS
_audit_creation_date              2020-12-01 
_audit_creation_method            'lammps2cif' 
_symmetry_space_group_name_H-M    'P1' 
_symmetry_Int_Tables_number       1 
_symmetry_cell_setting            triclinic 
loop_ 
_symmetry_equiv_pos_as_xyz 
  x,y,z 
_cell_length_a                    31.55017454 
_cell_length_b                    31.106859883338412 
_cell_length_c                    65.08095399187863 
_cell_angle_alpha                 90.43966811101221 
_cell_angle_beta                  90.00701948408928 
_cell_angle_gamma                 90.26710972750962 
loop_ 
_atom_site_label 
_atom_site_type_symbol 
_atom_site_fract_x 
_atom_site_fract_y 
_atom_site_fract_z 
_atom_site_charge 
O1          O  0.25576425  0.91905467  0.53091219    -0.80600
O2          O  0.20181771  0.93616324  0.61996974    -0.65200
O3          O  0.20716134  0.89727436  0.56455636    -1.11800
C4          C  0.11323417  0.00121993  0.54616780     1.06300
O5          O  0.14738725  0.98193832  0.61778783    -0.78500
O6          O  0.11073115  0.92571101  0.58975652    -0.66000
Ni7        Ni  0.25726179  0.87717282  0.55235327     1.34900
C8          C  0.10729184  0.90294942  0.57344908     0.85100
O9          O  0.23027388  0.86321341  0.60174493    -0.79000
O10         O  0.25968330  0.83414681  0.57304122    -0.89300
C11         C  0.17644321  0.96334035  0.62787444     0.84600
O12         O  0.29772069  0.91184262  0.56664620    -0.67500
O13         O  0.09905623  0.99276234  0.56394259    -0.86800
C14         C  0.29517553  0.93762918  0.58174155     0.85500
C15         C  0.24819759  0.83235591  0.59184653     1.07000
H16         H  0.20017174  0.99178023  0.58084183     0.38800
O17         O  0.18078992  0.96767598  0.58008319    -1.09400
O18         O  0.12669619  0.91243349  0.55663249    -0.66100
Ni19       Ni  0.18004397  0.94491836  0.55281189     1.26300
O20         O  0.26107279  0.94366714  0.59179934    -0.66300
O21         O  0.15120992  0.99298795  0.54135289    -0.78600
C22         C  0.22449626  0.92421880  0.51885741     0.84900
O23         O  0.18661748  0.92260893  0.52558209    -0.65800
Ni24       Ni  0.12669008  0.98457487  0.59019057     1.27400
Ni25       Ni  0.20592225  0.91637685  0.59201215     1.26100
H26         H  0.18827065  0.87279677  0.56376827     0.39400
O27         O  0.75114136  0.64889580  0.53502262    -0.80600
O28         O  0.81244148  0.63515211  0.62428364    -0.65200
O29         O  0.80283246  0.67165292  0.56849992    -1.11800
C30         C  0.89190798  0.56452983  0.54890766     1.06300
O31         O  0.86904548  0.59246756  0.62121059    -0.78500
O32         O  0.90267400  0.64497653  0.59072303    -0.66000
Ni33       Ni  0.75128132  0.69076834  0.55714959     1.34900
C34         C  0.90427550  0.66457146  0.57356675     0.85100
O35         O  0.78313234  0.70823771  0.60625795    -0.79000
O36         O  0.74972836  0.73426220  0.57812434    -0.89300
C37         C  0.83956353  0.60935849  0.63179816     0.84600
O38         O  0.71261868  0.65554720  0.57213682    -0.67500
O39         O  0.90841554  0.57394095  0.56617102    -0.86800
C40         C  0.71668644  0.63210878  0.58785753     0.85500
C41         C  0.76299351  0.73777766  0.59663625     1.07000
H42         H  0.81077025  0.57805973  0.58585614     0.38800
O43         O  0.82994725  0.60210146  0.58421851    -1.09400
O44         O  0.88179254  0.65312327  0.55801185    -0.66100
Ni45       Ni  0.82751405  0.62235336  0.55660874     1.26300
O46         O  0.75149482  0.62775953  0.59740255    -0.66300
O47         O  0.85349676  0.57260549  0.54510786    -0.78600
C48         C  0.78187898  0.64263392  0.52267569     0.84900
O49         O  0.81977087  0.64281590  0.52924354    -0.65800
Ni50       Ni  0.88535672  0.58630782  0.59304782     1.27400
Ni51       Ni  0.80650190  0.65428567  0.59626478     1.26100
H52         H  0.82200014  0.69572555  0.56697050     0.39400
O53         O  0.30686485  0.41953011  0.62287562    -0.80600
O54         O  0.36760478  0.46981775  0.71405021    -0.65200
O55         O  0.32050292  0.45775390  0.66028675    -1.11800
C56         C  0.44809306  0.53444835  0.64437531     1.06300
O57         O  0.37060877  0.53973015  0.70857481    -0.78500
O58         O  0.37082431  0.57934809  0.67218040    -0.66000
Ni59       Ni  0.30655487  0.40120135  0.65102180     1.34900
C60         C  0.34397195  0.57438866  0.65790212     0.85100
O61         O  0.29876193  0.43112997  0.69960529    -0.79000
O62         O  0.30001223  0.37605337  0.67791096    -0.89300
C63         C  0.36579125  0.50828753  0.72074845     0.84600
O64         O  0.36561233  0.38811632  0.65118414    -0.67500
O65         O  0.44839987  0.54569943  0.66332151    -0.86800
C66         C  0.38839576  0.38747255  0.66740815     0.85500
C67         C  0.29142841  0.39211731  0.69542371     1.07000
H68         H  0.41464666  0.47095920  0.67447797     0.38800
O69         O  0.38989724  0.48909077  0.67415265    -1.09400
O70         O  0.33859482  0.53927121  0.64815176    -0.66100
Ni71       Ni  0.36829710  0.48564850  0.64708534     1.26300
O72         O  0.37796500  0.40772988  0.68395795    -0.66300
O73         O  0.41769910  0.51377280  0.63561346    -0.78600
C74         C  0.32082146  0.45100288  0.61244808     0.84900
O75         O  0.34556459  0.47969331  0.61980599    -0.65800
Ni76       Ni  0.40890517  0.54158838  0.68553383     1.27400
Ni77       Ni  0.34455291  0.46070508  0.68715468     1.26100
H78         H  0.29552830  0.47553735  0.65974192     0.39400
O79         O  0.70354898  0.15145889  0.62563954    -0.80600
O80         O  0.63907934  0.10263619  0.71613151    -0.65200
O81         O  0.68658107  0.11184707  0.66227029    -1.11800
C82         C  0.55041446  0.05207574  0.64540990     1.06300
O83         O  0.62689750  0.03391176  0.70956027    -0.78500
O84         O  0.62473358  0.99676677  0.67231338    -0.66000
Ni85       Ni  0.70732076  0.16689517  0.65417504     1.34900
C86         C  0.65101626  0.99945326  0.65766191     0.85100
O87         O  0.71239045  0.13337629  0.70237903    -0.79000
O88         O  0.71807431  0.18875809  0.68143435    -0.89300
C89         C  0.63487630  0.06413771  0.72226229     0.84600
O90         O  0.65062109  0.18837991  0.65546841    -0.67500
O91         O  0.55038269  0.03838873  0.66385450    -0.86800
C92         C  0.62898672  0.19052284  0.67206277     0.85500
C93         C  0.72425052  0.17148255  0.69877467     1.07000
H94         H  0.59193610  0.10929879  0.67701973     0.38800
O95         O  0.61432702  0.08830601  0.67597493    -1.09400
O96         O  0.65826516  0.03407097  0.64797193    -0.66100
Ni97       Ni  0.63525114  0.09132297  0.64871509     1.26300
O98         O  0.63684864  0.16691946  0.68769926    -0.66300
O99         O  0.58209141  0.07097524  0.63690394    -0.78600
C100        C  0.68536850  0.12316382  0.61449984     0.84900
O101        O  0.65765833  0.09701819  0.62135905    -0.65800
Ni102      Ni  0.58970211  0.03731885  0.68617308     1.27400
Ni103      Ni  0.66310999  0.11007203  0.68936100     1.26100
H104        H  0.70908059  0.09099756  0.66108390     0.39400
O105        O  0.64481774  0.98459809  0.87252509    -0.80600
O106        O  0.68543000  0.93122106  0.96499800    -0.65200
O107        O  0.67880059  0.97189985  0.91004429    -1.11800
C108        C  0.74387775  0.83495907  0.89935686     1.06300
O109        O  0.75453303  0.92669727  0.95944959    -0.78500
O110        O  0.79527613  0.91625734  0.92319020    -0.66000
Ni111      Ni  0.62485975  0.98931292  0.90013776     1.34900
C112        C  0.79183779  0.93952937  0.90739376     0.85100
O113        O  0.65103652  0.00095541  0.94864281    -0.79000
O114        O  0.59823366  0.99962304  0.92643022    -0.89300
C115        C  0.72344417  0.93290051  0.97154357     0.84600
O116        O  0.60808027  0.93064707  0.90109821    -0.67500
O117        O  0.75656527  0.83845092  0.91796593    -0.86800
C118        C  0.60521436  0.90886749  0.91758206     0.85500
C119        C  0.61293945  0.00888529  0.94406964     1.07000
H120        H  0.68539507  0.87819181  0.92772414     0.38800
O121        O  0.70444653  0.90236883  0.92629928    -1.09400
O122        O  0.75719494  0.94452741  0.89776505    -0.66100
Ni123      Ni  0.70183667  0.91883700  0.89859499     1.26300
O124        O  0.62459919  0.91973558  0.93429707    -0.66300
O125        O  0.72475592  0.86456800  0.88938271    -0.78600
C126        C  0.67246943  0.96383988  0.86237927     0.84900
O127        O  0.69678561  0.93596992  0.87032744    -0.65800
Ni128      Ni  0.75508341  0.88312856  0.93829040     1.27400
Ni129      Ni  0.67858077  0.95148046  0.93757213     1.26100
H130        H  0.69880785  0.99535466  0.90879976     0.39400
O131        O  0.37041705  0.59144446  0.87232797    -0.80600
O132        O  0.32007461  0.64623222  0.96451757    -0.65200
O133        O  0.33240506  0.60220935  0.90979515    -1.11800
C134        C  0.25918951  0.73370759  0.89667081     1.06300
O135        O  0.25136161  0.64656075  0.95800018    -0.78500
O136        O  0.21270658  0.64876429  0.92116445    -0.66000
Ni137      Ni  0.38781116  0.58767101  0.90048702     1.34900
C138        C  0.21827558  0.62536573  0.90539718     0.85100
O139        O  0.35913853  0.57686758  0.94944377    -0.79000
O140        O  0.41204728  0.57747689  0.92710701    -0.89300
C141        C  0.28183743  0.64548909  0.97076650     0.84600
O142        O  0.40356326  0.64696389  0.90258568    -0.67500
O143        O  0.24461805  0.72953119  0.91488289    -0.86800
C144        C  0.40455144  0.66809688  0.91952403     0.85500
C145        C  0.39710379  0.56822995  0.94461735     1.07000
H146        H  0.31932732  0.69627676  0.92674494     0.38800
O147        O  0.30172741  0.67096260  0.92517442    -1.09400
O148        O  0.25329614  0.62339532  0.89583754    -0.66100
Ni149      Ni  0.30689753  0.65298528  0.89758651     1.26300
O150        O  0.38209840  0.65760467  0.93521479    -0.66300
O151        O  0.28172187  0.70535261  0.88738668    -0.78600
C152        C  0.34100585  0.60878364  0.86201006     0.84900
O153        O  0.31417891  0.63448779  0.86973556    -0.65800
Ni154      Ni  0.24873520  0.68728432  0.93599379     1.27400
Ni155      Ni  0.32950749  0.62402716  0.93736928     1.26100
H156        H  0.31396691  0.57747525  0.90839021     0.39400
O157        O  0.13339203  0.02782066  0.78127488    -0.80600
O158        O  0.15710676  0.09027182  0.87007095    -0.65200
O159        O  0.11400227  0.07935396  0.81570553    -1.11800
C160        C  0.21547916  0.17497648  0.79477601     1.06300
O161        O  0.18877565  0.15448678  0.86734422    -0.78500
O162        O  0.13697222  0.18469958  0.83661598    -0.66000
Ni163      Ni  0.09582927  0.02583824  0.80468999     1.34900
C164        C  0.11621187  0.18470301  0.81982147     0.85100
O165        O  0.08700588  0.05430133  0.85450270    -0.79000
O166        O  0.05680328  0.02078262  0.82719853    -0.89300
C167        C  0.17684874  0.12223338  0.87775196     0.84600
O168        O  0.13538203  0.98917542  0.81786612    -0.67500
O169        O  0.20690185  0.19190079  0.81209095    -0.86800
C170        C  0.16184466  0.99470998  0.83227800     0.85500
C171        C  0.05735457  0.03220694  0.84612135     1.07000
H172        H  0.20788310  0.09510558  0.83084651     0.38800
O173        O  0.18249651  0.11225349  0.82993897    -1.09400
O174        O  0.12665402  0.16114425  0.80435712    -0.66100
Ni175      Ni  0.15973038  0.10768750  0.80281073     1.26300
O176        O  0.16612098  0.03000429  0.84208904    -0.66300
O177        O  0.20624151  0.13637649  0.79051718    -0.78600
C178        C  0.13893501  0.05929066  0.76918641     0.84900
O179        O  0.13761353  0.09771618  0.77585877    -0.65800
Ni180      Ni  0.19514692  0.16943294  0.83900984     1.27400
Ni181      Ni  0.13528426  0.08331553  0.84287860     1.26100
H182        H  0.08931176  0.09754714  0.81514861     0.39400
O183        O  0.86936085  0.53621395  0.78373562    -0.80600
O184        O  0.84705431  0.48212516  0.87374835    -0.65200
O185        O  0.88751582  0.48746442  0.81862321    -1.11800
C186        C  0.78283818  0.39513561  0.79910988     1.06300
O187        O  0.80113399  0.42729411  0.87108647    -0.78500
O188        O  0.85680176  0.38940547  0.84301080    -0.66000
Ni189      Ni  0.90781394  0.53885053  0.80685140     1.34900
C190        C  0.87904289  0.38630352  0.82665310     0.85100
O191        O  0.91949207  0.51076701  0.85669396    -0.79000
O192        O  0.94789587  0.54394581  0.82901508    -0.89300
C193        C  0.81944648  0.45690122  0.88134620     0.84600
O194        O  0.87019038  0.57801851  0.81982852    -0.67500
O195        O  0.79031579  0.38010793  0.81680320    -0.86800
C196        C  0.84566457  0.57516802  0.83514004     0.85500
C197        C  0.94912139  0.53187886  0.84777068     1.07000
H198        H  0.79362439  0.48152001  0.83427717     0.38800
O199        O  0.81698828  0.46161480  0.83355816    -1.09400
O200        O  0.86966300  0.40635093  0.81005416    -0.66100
Ni201      Ni  0.83979877  0.46107281  0.80643738     1.26300
O202        O  0.84166066  0.54144858  0.84582461    -0.66300
O203        O  0.79153507  0.43363720  0.79471822    -0.78600
C204        C  0.86322361  0.50383510  0.77202382     0.84900
O205        O  0.86257940  0.46603284  0.77929100    -0.65800
Ni206      Ni  0.79888559  0.40690987  0.84328914     1.27400
Ni207      Ni  0.86769880  0.48598749  0.84605042     1.26100
H208        H  0.91131566  0.46809997  0.81784326     0.39400
O209        O  0.75172636  0.42250113  0.03435919    -0.80600
O210        O  0.69553626  0.43570149  0.12353974    -0.65200
O211        O  0.70278793  0.39792304  0.06785344    -1.11800
C212        C  0.60268398  0.49708508  0.05058348     1.06300
O213        O  0.63423544  0.47126115  0.12208201    -0.78500
O214        O  0.60306032  0.41544315  0.09147112    -0.66000
Ni215      Ni  0.75440579  0.38052465  0.05595521     1.34900
C216        C  0.60131293  0.39591624  0.07412485     0.85100
O217        O  0.72760670  0.36457318  0.10527305    -0.79000
O218        O  0.75798266  0.33691632  0.07656362    -0.89300
C219        C  0.66661877  0.45835290  0.13179623     0.84600
O220        O  0.79299189  0.41680768  0.07083472    -0.67500
O221        O  0.58905130  0.48594778  0.06808257    -0.86800
C222        C  0.78826682  0.44217789  0.08600240     0.85500
C223        C  0.74635034  0.33435027  0.09535468     1.07000
H224        H  0.68798830  0.49114293  0.08541453     0.38800
O225        O  0.67102937  0.46534351  0.08402861    -1.09400
O226        O  0.62207358  0.40880559  0.05832584    -0.66100
Ni227      Ni  0.67324084  0.44459087  0.05627751     1.26300
O228        O  0.75316339  0.44682269  0.09535159    -0.66300
O229        O  0.64093869  0.49105265  0.04525817    -0.78600
C230        C  0.72053135  0.42674521  0.02209596     0.84900
O231        O  0.68254290  0.42459243  0.02869593    -0.65800
Ni232      Ni  0.61528166  0.47552169  0.09422268     1.27400
Ni233      Ni  0.70006097  0.41605360  0.09554837     1.26100
H234        H  0.68515761  0.37253452  0.06683369     0.39400
O235        O  0.19663346  0.65385280  0.12297455    -0.80600
O236        O  0.14444040  0.59686056  0.21429020    -0.65200
O237        O  0.18821963  0.61145806  0.15984493    -1.11800
C238        C  0.05634684  0.54224809  0.14317712     1.06300
O239        O  0.13389620  0.52808983  0.20704589    -0.78500
O240        O  0.13057590  0.49149060  0.16983813    -0.66000
Ni241      Ni  0.20303998  0.66824817  0.15151138     1.34900
C242        C  0.15847954  0.49530402  0.15598130     0.85100
O243        O  0.21419793  0.63398130  0.19960793    -0.79000
O244        O  0.21488227  0.68982413  0.17867333    -0.89300
C245        C  0.14240636  0.55780872  0.21994490     0.84600
O246        O  0.14527981  0.68520291  0.15424041    -0.67500
O247        O  0.05507487  0.53114395  0.16204716    -0.86800
C248        C  0.12491196  0.68546746  0.17119199     0.85500
C249        C  0.22280697  0.67295492  0.19594835     1.07000
H250        H  0.09497858  0.60244774  0.17474083     0.38800
O251        O  0.11829453  0.58251421  0.17392317    -1.09400
O252        O  0.16636526  0.53049365  0.14685355    -0.66100
Ni253      Ni  0.13902117  0.58582463  0.14666816     1.26300
O254        O  0.13548896  0.66197569  0.18647364    -0.66300
O255        O  0.08827362  0.56066844  0.13478855    -0.78600
C256        C  0.18287891  0.62258939  0.11215097     0.84900
O257        O  0.16099075  0.59188529  0.11943874    -0.65800
Ni258      Ni  0.09528301  0.53096260  0.18415344     1.27400
Ni259      Ni  0.16609545  0.60724754  0.18714840     1.26100
H260        H  0.21261220  0.59309096  0.15843209     0.39400
O261        O  0.24413255  0.14201068  0.03196673    -0.80600
O262        O  0.30736278  0.12679295  0.12061101    -0.65200
O263        O  0.29341213  0.16523748  0.06553656    -1.11800
C264        C  0.38963507  0.06631825  0.04400759     1.06300
O265        O  0.35877297  0.07818037  0.11637720    -0.78500
O266        O  0.39175761  0.13841279  0.08936513    -0.66000
Ni267      Ni  0.24090350  0.18188413  0.05468481     1.34900
C268        C  0.39342591  0.16218859  0.07346928     0.85100
O269        O  0.27565303  0.19970421  0.10350108    -0.79000
O270        O  0.23701923  0.22349784  0.07642662    -0.89300
C271        C  0.33189502  0.09777356  0.12748831     0.84600
O272        O  0.20437875  0.14324119  0.06894379    -0.67500
O273        O  0.40422667  0.07393093  0.06183061    -0.86800
C274        C  0.20926562  0.12156630  0.08516611     0.85500
C275        C  0.25289959  0.22805154  0.09442288     1.07000
H276        H  0.30343354  0.07110100  0.08051719     0.38800
O277        O  0.32273514  0.09523892  0.07966310    -1.09400
O278        O  0.37366851  0.15284096  0.05667135    -0.66100
Ni279      Ni  0.32124615  0.11906569  0.05268599     1.26300
O280        O  0.24425043  0.11941984  0.09478003    -0.66300
O281        O  0.35100541  0.07266555  0.03989567    -0.78600
C282        C  0.27509092  0.14157862  0.01940520     0.84900
O283        O  0.31309070  0.14298375  0.02598158    -0.65800
Ni284      Ni  0.37785607  0.07885263  0.08852331     1.27400
Ni285      Ni  0.29904534  0.14644428  0.09283089     1.26100
H286        H  0.31083104  0.19069862  0.06430550     0.39400
O287        O  0.80746945  0.91362875  0.12408105    -0.80600
O288        O  0.86292701  0.96550899  0.21528860    -0.65200
O289        O  0.81510649  0.95275532  0.16160146    -1.11800
C290        C  0.94031235  0.03333418  0.14528299     1.06300
O291        O  0.86420078  0.03555381  0.20980638    -0.78500
O292        O  0.86389958  0.07662431  0.17379732    -0.66000
Ni293      Ni  0.80450988  0.89590056  0.15185407     1.34900
C294        C  0.83577212  0.07180666  0.16009631     0.85100
O295        O  0.79504310  0.92339691  0.20114290    -0.79000
O296        O  0.79674993  0.87030344  0.17828504    -0.89300
C297        C  0.86055637  0.00397387  0.22198331     0.84600
O298        O  0.86347619  0.88442065  0.15258529    -0.67500
O299        O  0.94137912  0.04342896  0.16437949    -0.86800
C300        C  0.88542177  0.88340586  0.16896188     0.85500
C301        C  0.78734906  0.88479012  0.19593366     1.07000
H302        H  0.90864648  0.96838456  0.17497043     0.38800
O303        O  0.88356014  0.98605079  0.17516811    -1.09400
O304        O  0.82957776  0.03659246  0.15045928    -0.66100
Ni305      Ni  0.86093486  0.98371996  0.14824931     1.26300
O306        O  0.87463807  0.90378420  0.18537920    -0.66300
O307        O  0.90917165  0.01373415  0.13656401    -0.78600
C308        C  0.81688597  0.94652327  0.11364953     0.84900
O309        O  0.83688897  0.97870953  0.12108810    -0.65800
Ni310      Ni  0.90226868  0.03846139  0.18673647     1.27400
Ni311      Ni  0.83953835  0.95563957  0.18849453     1.26100
H312        H  0.78914260  0.96913349  0.16130561     0.39400
O313        O  0.86645730  0.09195563  0.37314283    -0.80600
O314        O  0.81993838  0.14793249  0.46536245    -0.65200
O315        O  0.82875727  0.10263744  0.41069850    -1.11800
C316        C  0.75749299  0.23458161  0.39729714     1.06300
O317        O  0.75085525  0.15171153  0.46025949    -0.78500
O318        O  0.71048317  0.15250939  0.42364601    -0.66000
Ni319      Ni  0.88429239  0.08803724  0.40126628     1.34900
C320        C  0.71388190  0.12846290  0.40793893     0.85100
O321        O  0.85575735  0.07758901  0.44993517    -0.79000
O322        O  0.90928535  0.07840157  0.42803603    -0.89300
C323        C  0.78232438  0.14797798  0.47237506     0.84600
O324        O  0.90035842  0.14722730  0.40280918    -0.67500
O325        O  0.74409415  0.23210086  0.41580020    -0.86800
C326        C  0.90228705  0.16828564  0.41970145     0.85500
C327        C  0.89416860  0.07021523  0.44569234     1.07000
H328        H  0.81829007  0.19726974  0.42694512     0.38800
O329        O  0.79990132  0.17241751  0.42593581    -1.09400
O330        O  0.74812155  0.12475367  0.39772366    -0.66100
Ni331      Ni  0.80293291  0.15295294  0.39838188     1.26300
O332        O  0.88031613  0.15793674  0.43555310    -0.66300
O333        O  0.77819522  0.20497354  0.38798400    -0.78600
C334        C  0.83633304  0.10816150  0.36282128     0.84900
O335        O  0.80861782  0.13292288  0.37059441    -0.65800
Ni336      Ni  0.74828253  0.19096697  0.43747288     1.27400
Ni337      Ni  0.82716223  0.12525511  0.43812047     1.26100
H338        H  0.81026810  0.07789314  0.40957673     0.39400
O339        O  0.14097509  0.49462653  0.37491067    -0.80600
O340        O  0.17978728  0.42122212  0.46469071    -0.65200
O341        O  0.17579099  0.47497428  0.41211400    -1.11800
C342        C  0.23920362  0.34085601  0.39268688     1.06300
O343        O  0.24832891  0.41048214  0.45991756    -0.78500
O344        O  0.28979071  0.41098504  0.42361335    -0.66000
Ni345      Ni  0.12164498  0.49394107  0.40284731     1.34900
C346        C  0.28903852  0.43952313  0.40983905     0.85100
O347        O  0.14852066  0.49548884  0.45184815    -0.79000
O348        O  0.09576601  0.49996542  0.42961196    -0.89300
C349        C  0.21721416  0.41862992  0.47180809     0.84600
O350        O  0.10369581  0.43518472  0.40144186    -0.67500
O351        O  0.24902252  0.33751909  0.41171473    -0.86800
C352        C  0.10036226  0.41109733  0.41718122     0.85500
C353        C  0.11066799  0.50532327  0.44758361     1.07000
H354        H  0.17878684  0.37763361  0.42363266     0.38800
O355        O  0.19912827  0.40089794  0.42422475    -1.09400
O356        O  0.25566203  0.44978313  0.40004747    -0.66100
Ni357      Ni  0.19949851  0.42563528  0.39771209     1.26300
O358        O  0.12016929  0.41904882  0.43403784    -0.66300
O359        O  0.22232299  0.37434535  0.38481927    -0.78600
C360        C  0.17114894  0.47940567  0.36420789     0.84900
O361        O  0.19741026  0.45195712  0.37101880    -0.65800
Ni362      Ni  0.24762906  0.37485213  0.43537082     1.27400
Ni363      Ni  0.17480604  0.44798661  0.43837654     1.26100
H364        H  0.19553706  0.49882662  0.41229563     0.39400
O365        O  0.63685888  0.53205557  0.28431936    -0.80600
O366        O  0.65345892  0.58309404  0.37436555    -0.65200
O367        O  0.61358859  0.57939277  0.31903308    -1.11800
C368        C  0.71148212  0.68131852  0.30240453     1.06300
O369        O  0.68749492  0.64636969  0.37367983    -0.78500
O370        O  0.63226747  0.68004522  0.34397677    -0.66000
Ni371      Ni  0.59616254  0.52778129  0.30620855     1.34900
C372        C  0.61281890  0.68223079  0.32677041     0.85100
O373        O  0.58270810  0.54995077  0.35638342    -0.79000
O374        O  0.55430837  0.52176754  0.32724839    -0.89300
C375        C  0.67563046  0.61252097  0.38289906     0.84600
O376        O  0.63320166  0.48892060  0.31954283    -0.67500
O377        O  0.70124790  0.69464678  0.32017719    -0.86800
C378        C  0.65999412  0.49330628  0.33387640     0.85500
C379        C  0.55263730  0.53133514  0.34636395     1.07000
H380        H  0.70618759  0.59418180  0.33590834     0.38800
O381        O  0.68062038  0.61106364  0.33509583    -1.09400
O382        O  0.62506437  0.66159991  0.31068481    -0.66100
Ni383      Ni  0.65959524  0.60988892  0.30753976     1.26300
O384        O  0.66412173  0.52757558  0.34444599    -0.66300
O385        O  0.70561471  0.64262999  0.29680242    -0.78600
C386        C  0.64097954  0.56424281  0.27256413     0.84900
O387        O  0.63924610  0.60232233  0.27985563    -0.65800
Ni388      Ni  0.69134849  0.66705046  0.34606997     1.27400
Ni389      Ni  0.63270351  0.58015828  0.34658229     1.26100
H390        H  0.58865558  0.59726756  0.31866301     0.39400
O391        O  0.36552063  0.03487594  0.28101367    -0.80600
O392        O  0.35213486  0.98021601  0.37138769    -0.65200
O393        O  0.38743246  0.98766998  0.31554010    -1.11800
C394        C  0.28237468  0.89375719  0.29785492     1.06300
O395        O  0.30126525  0.93003284  0.36883542    -0.78500
O396        O  0.35643430  0.89078546  0.34171744    -0.66000
Ni397      Ni  0.40447730  0.04016491  0.30373804     1.34900
C398        C  0.37895952  0.88692840  0.32553432     0.85100
O399        O  0.42366316  0.00855035  0.35286901    -0.79000
O400        O  0.44555975  0.04688860  0.32533655    -0.89300
C401        C  0.32255421  0.95748999  0.37904844     0.84600
O402        O  0.36553881  0.07828518  0.31705817    -0.67500
O403        O  0.29078134  0.87935449  0.31552673    -0.86800
C404        C  0.34468730  0.07482688  0.33360675     0.85500
C405        C  0.45093470  0.03195423  0.34342255     1.07000
H406        H  0.29514005  0.98266861  0.33234481     0.38800
O407        O  0.31790058  0.96205358  0.33147159    -1.09400
O408        O  0.36982597  0.90580941  0.30853474    -0.66100
Ni409      Ni  0.33948104  0.96030445  0.30416817     1.26300
O410        O  0.34482306  0.04106926  0.34444001    -0.66300
O411        O  0.29080523  0.93213402  0.29313699    -0.78600
C412        C  0.36157354  0.00208998  0.26929601     0.84900
O413        O  0.36136757  0.96437880  0.27676198    -0.65800
Ni414      Ni  0.29885218  0.90800436  0.34155388     1.27400
Ni415      Ni  0.37014234  0.98518058  0.34327426     1.26100
H416        H  0.41167094  0.96903783  0.31407086     0.39400
C417        C  0.47267224  0.81355877  0.33752809     0.16300
C418        C  0.50429536  0.78934393  0.34705570    -0.32700
C419        C  0.52788927  0.76120509  0.33470693     0.20700
C420        C  0.52031234  0.75727897  0.31378524     0.02900
C421        C  0.48895501  0.78191850  0.30419192    -0.22500
C422        C  0.46542027  0.81023862  0.31654654     0.12100
S423        S  0.43964342  0.84800277  0.35007157    -0.06100
C424        C  0.41600335  0.85861167  0.32679958    -0.09600
C425        C  0.43310394  0.83648441  0.31021948    -0.26200
S426        S  0.55220550  0.72101020  0.30157247    -0.03400
C427        C  0.57628659  0.71131614  0.32487127    -0.16900
C428        C  0.56001257  0.73502334  0.34115812    -0.14900
H429        H  0.51003244  0.79208167  0.36342190     0.20500
H430        H  0.48304210  0.77899077  0.28784998     0.16600
H431        H  0.42167703  0.83848644  0.29456598     0.19100
H432        H  0.57134829  0.73352404  0.35684416     0.12400
C433        C  0.40273688  0.47730960  0.39899794     0.16300
C434        C  0.44697615  0.48278652  0.39831075    -0.32700
C435        C  0.46447130  0.50067894  0.38043651     0.20700
C436        C  0.43884416  0.51240418  0.36409331     0.02900
C437        C  0.39479280  0.50797344  0.36500569    -0.22500
C438        C  0.37741400  0.49017509  0.38276884     0.12100
S439        S  0.37545433  0.45250440  0.41826649    -0.06100
C440        C  0.32957981  0.45987844  0.40425880    -0.09600
C441        C  0.33547672  0.48088306  0.38581634    -0.26200
S442        S  0.46549528  0.53024782  0.34315740    -0.03400
C443        C  0.51194298  0.52259738  0.35647806    -0.16900
C444        C  0.50682279  0.50718087  0.37627153    -0.14900
H445        H  0.46690501  0.47244104  0.41086654     0.20500
H446        H  0.37497738  0.51686513  0.35214190     0.16600
H447        H  0.31074655  0.48675337  0.37464830     0.19100
H448        H  0.53252689  0.49980535  0.38667033     0.12400
C449        C  0.26960148  0.24961608  0.35496308     0.16300
C450        C  0.28650677  0.22377352  0.33908825    -0.32700
C451        C  0.29497094  0.18031417  0.34356686     0.20700
C452        C  0.28547936  0.16334132  0.36267684     0.02900
C453        C  0.26816247  0.18877192  0.37824307    -0.22500
C454        C  0.26126981  0.23212111  0.37406711     0.12100
S455        S  0.26071098  0.30409087  0.35388729    -0.06100
C456        C  0.24746953  0.30275850  0.37965136    -0.09600
C457        C  0.24863363  0.26213523  0.38810462    -0.26200
S458        S  0.29986845  0.11126051  0.36591569    -0.03400
C459        C  0.32027745  0.11184759  0.34142338    -0.16900
C460        C  0.31503777  0.15061714  0.33115932    -0.14900
H461        H  0.29436906  0.23728854  0.32428029     0.20500
H462        H  0.26209231  0.17571210  0.39334591     0.16600
H463        H  0.24190712  0.25505987  0.40405249     0.19100
H464        H  0.32665878  0.15717024  0.31584006     0.12400
C465        C  0.02647461  0.31522234  0.40610930     0.16300
C466        C  0.00053391  0.28362420  0.39709917    -0.32700
C467        C  0.97795271  0.25629171  0.41022560     0.20700
C468        C  0.98108653  0.26010895  0.43141375     0.02900
C469        C  0.00777387  0.29117425  0.44044465    -0.22500
C470        C  0.03030465  0.31863140  0.42728924     0.12100
S471        S  0.05458860  0.35282529  0.39278912    -0.06100
C472        C  0.07208395  0.37331668  0.41595991    -0.09600
C473        C  0.05687720  0.35167983  0.43304812    -0.26200
S474        S  0.94966389  0.22488474  0.44460414    -0.03400
C475        C  0.93240668  0.20458564  0.42131262    -0.16900
C476        C  0.95042928  0.22425168  0.40434355    -0.14900
H477        H  0.99753923  0.28091928  0.38056309     0.20500
H478        H  0.01034531  0.29424835  0.45698375     0.16600
H479        H  0.06412274  0.36026934  0.44882510     0.19100
H480        H  0.94343803  0.21582771  0.38852010     0.12400
C481        C  0.74177241  0.34946910  0.37936612     0.16300
C482        C  0.73507470  0.39373312  0.37869339    -0.32700
C483        C  0.71988395  0.41072065  0.36035078     0.20700
C484        C  0.71292582  0.38500844  0.34314966     0.02900
C485        C  0.72180306  0.34083557  0.34349478    -0.22500
C486        C  0.73579250  0.32353399  0.36214234     0.12100
S487        S  0.75357093  0.32260541  0.40117603    -0.06100
C488        C  0.75080447  0.27571640  0.38709367    -0.09600
C489        C  0.74186374  0.28079772  0.36640659    -0.26200
S490        S  0.68786692  0.41064840  0.32355747    -0.03400
C491        C  0.68610114  0.45598037  0.33897575    -0.16900
C492        C  0.70553490  0.45169646  0.35786780    -0.14900
H493        H  0.73876927  0.41361871  0.39231848     0.20500
H494        H  0.71539993  0.32046398  0.33027741     0.16600
H495        H  0.73813322  0.25471869  0.35542658     0.19100
H496        H  0.70573582  0.47606134  0.36985470     0.12400
C497        C  0.60402589  0.08028210  0.39586738     0.16300
C498        C  0.56081614  0.06891987  0.39594527    -0.32700
C499        C  0.54202380  0.05752343  0.37708917     0.20700
C500        C  0.56548778  0.05739235  0.35905828     0.02900
C501        C  0.60878644  0.06766029  0.35906690    -0.22500
C502        C  0.62746927  0.07920287  0.37784932     0.12100
S503        S  0.63163424  0.09916302  0.41665855    -0.06100
C504        C  0.67530824  0.10549029  0.40094901    -0.09600
C505        C  0.66850812  0.09300885  0.38070310    -0.26200
S506        S  0.53681964  0.04606576  0.33755340    -0.03400
C507        C  0.49250959  0.04107723  0.35285300    -0.16900
C508        C  0.49997303  0.04742389  0.37367763    -0.14900
H509        H  0.54238692  0.07021145  0.40996849     0.20500
H510        H  0.62683560  0.06792580  0.34491353     0.16600
H511        H  0.69156640  0.09627908  0.36847727     0.19100
H512        H  0.47583741  0.04626042  0.38549014     0.12400
C513        C  0.74217383  0.77836957  0.27011555     0.16300
C514        C  0.75113269  0.81966396  0.26283519    -0.32700
C515        C  0.75572770  0.82451391  0.24159383     0.20700
C516        C  0.75113524  0.78979270  0.22824678     0.02900
C517        C  0.74191779  0.74858989  0.23550960    -0.22500
C518        C  0.73784351  0.74366245  0.25674687     0.12100
S519        S  0.73512193  0.76601202  0.29527357    -0.06100
C520        C  0.72642253  0.71345431  0.28772818    -0.09600
C521        C  0.72895302  0.70615880  0.26677281    -0.26200
S522        S  0.75977855  0.80157794  0.20318101    -0.03400
C523        C  0.77032480  0.85381843  0.21069557    -0.16900
C524        C  0.76652961  0.86160923  0.23157820    -0.14900
H525        H  0.75478044  0.84669723  0.27328079     0.20500
H526        H  0.73864297  0.72147338  0.22508138     0.16600
H527        H  0.72313526  0.67551113  0.25924946     0.19100
H528        H  0.77315340  0.89209993  0.23908684     0.12400
C529        C  0.84972412  0.01798965  0.28030086     0.16300
C530        C  0.85457933  0.01559811  0.30161747    -0.32700
C531        C  0.84282333  0.05151473  0.31339914     0.20700
C532        C  0.82546468  0.08783798  0.30458160     0.02900
C533        C  0.82048170  0.09025074  0.28318407    -0.22500
C534        C  0.83370170  0.05477591  0.27131369     0.12100
S535        S  0.86517237  0.97893629  0.26326215    -0.06100
C536        C  0.85162756  0.01320802  0.24376305    -0.09600
C537        C  0.83478404  0.05218969  0.25031536    -0.26200
S538        S  0.81340237  0.12786401  0.32188979    -0.03400
C539        C  0.83342619  0.09560774  0.34098404    -0.16900
C540        C  0.84774516  0.05596670  0.33414448    -0.14900
H541        H  0.86817357  0.98743564  0.30868470     0.20500
H542        H  0.80805591  0.11891317  0.27606554     0.16600
H543        H  0.82501166  0.07782203  0.24021131     0.19100
H544        H  0.86124237  0.03155199  0.34392117     0.12400
C545        C  0.32640028  0.07984469  0.18591684     0.16300
C546        C  0.32332258  0.08390293  0.20731078    -0.32700
C547        C  0.33720515  0.04935368  0.21927673     0.20700
C548        C  0.35274616  0.01189372  0.21048319     0.02900
C549        C  0.35611862  0.00791981  0.18904498    -0.22500
C550        C  0.34294931  0.04289210  0.17706977     0.12100
S551        S  0.31232213  0.11865970  0.16867978    -0.06100
C552        C  0.33000454  0.08523951  0.14932752    -0.09600
C553        C  0.34526395  0.04592608  0.15612009    -0.26200
S554        S  0.36797220  0.97386594  0.22796068    -0.03400
C555        C  0.35431818  0.00953174  0.24722518    -0.16900
C556        C  0.33826494  0.04821360  0.24025102    -0.14900
H557        H  0.31122221  0.11300680  0.21435757     0.20500
H558        H  0.36900424  0.97914936  0.18201562     0.16600
H559        H  0.35794203  0.02098267  0.14620996     0.19100
H560        H  0.32833510  0.07453702  0.25009412     0.12400
C561        C  0.03284346  0.06081575  0.10891040     0.16300
C562        C  0.05986767  0.07205040  0.09260826    -0.32700
C563        C  0.10275470  0.08024428  0.09727738     0.20700
C564        C  0.11808187  0.07640023  0.11714999     0.02900
C565        C  0.09118523  0.06546281  0.13333992    -0.22500
C566        C  0.04840681  0.05833329  0.12877750     0.12100
S567        S  0.97951917  0.05024743  0.10694095    -0.06100
C568        C  0.97848344  0.04383910  0.13324872    -0.09600
C569        C  0.01752460  0.04898823  0.14270625    -0.26200
S570        S  0.17044922  0.08854736  0.11999399    -0.03400
C571        C  0.17195860  0.10027361  0.09421104    -0.16900
C572        C  0.13364745  0.09419902  0.08398691    -0.14900
H573        H  0.04789966  0.07502994  0.07709408     0.20500
H574        H  0.10294993  0.06345206  0.14893765     0.16600
H575        H  0.02313195  0.04580048  0.15904733     0.19100
H576        H  0.12834583  0.10110484  0.06790952     0.12400
C577        C  0.24866427  0.73825603  0.24434264     0.16300
C578        C  0.25444147  0.75381996  0.26439667    -0.32700
C579        C  0.25701830  0.79854563  0.26712301     0.20700
C580        C  0.25377809  0.82652702  0.25071057     0.02900
C581        C  0.24793077  0.81099917  0.23074380    -0.22500
C582        C  0.24577378  0.76642135  0.22800295     0.12100
S583        S  0.24323715  0.68525119  0.23762299    -0.06100
C584        C  0.23717763  0.70156586  0.21256329    -0.09600
C585        C  0.23966121  0.74560657  0.20978686    -0.26200
S586        S  0.25979731  0.87948094  0.25697143    -0.03400
C587        C  0.26728246  0.86382107  0.28197918    -0.16900
C588        C  0.26444806  0.81986331  0.28518794    -0.14900
H589        H  0.25699316  0.73210978  0.27726199     0.20500
H590        H  0.24557647  0.83270256  0.21786308     0.16600
H591        H  0.23514512  0.76182464  0.19528128     0.19100
H592        H  0.26968743  0.80418676  0.29976924     0.12400
C593        C  0.16911633  0.50657464  0.27197295     0.16300
C594        C  0.17834948  0.47800892  0.28795601    -0.32700
C595        C  0.17732822  0.49401856  0.30815941     0.20700
C596        C  0.16763341  0.53671903  0.31217736     0.02900
C597        C  0.15960840  0.56560001  0.29614350    -0.22500
C598        C  0.16043715  0.54951848  0.27593321     0.12100
S599        S  0.16547427  0.49238637  0.24669822    -0.06100
C600        C  0.15255752  0.54492980  0.24120383    -0.09600
C601        C  0.15144136  0.57194490  0.25826987    -0.26200
S602        S  0.16338098  0.54885949  0.33768521    -0.03400
C603        C  0.17503851  0.49596680  0.34308811    -0.16900
C604        C  0.18245105  0.47057633  0.32587015    -0.14900
H605        H  0.18471264  0.44442043  0.28480782     0.20500
H606        H  0.15166429  0.59881572  0.29933319     0.16600
H607        H  0.14326336  0.60569632  0.25785744     0.19100
H608        H  0.18854552  0.43636326  0.32625131     0.12400
C609        C  0.98191736  0.81224272  0.15894640     0.16300
C610        C  0.01459992  0.78840878  0.14996943    -0.32700
C611        C  0.03874375  0.76224869  0.16280737     0.20700
C612        C  0.03061127  0.75947834  0.18368996     0.02900
C613        C  0.99796366  0.78370061  0.19275475    -0.22500
C614        C  0.97397894  0.81036386  0.17988870     0.12100
S615        S  0.94852879  0.84463714  0.14568072    -0.06100
C616        C  0.92371479  0.85661883  0.16856818    -0.09600
C617        C  0.94067691  0.83626621  0.18558357    -0.26200
S618        S  0.06343457  0.72496870  0.19639266    -0.03400
C619        C  0.08849964  0.71473312  0.17330205    -0.16900
C620        C  0.07190067  0.73693601  0.15680226    -0.14900
H621        H  0.02083460  0.79004760  0.13362823     0.20500
H622        H  0.99150548  0.78178750  0.20906224     0.16600
H623        H  0.92846886  0.83916925  0.20107928     0.19100
H624        H  0.08342931  0.73460253  0.14115857     0.12400
C625        C  0.23315504  0.34468648  0.11002507     0.16300
C626        C  0.22468256  0.38877735  0.10982945    -0.32700
C627        C  0.21071830  0.40779671  0.12812083     0.20700
C628        C  0.20579508  0.38399580  0.14591142     0.02900
C629        C  0.21558034  0.33999870  0.14627276    -0.22500
C630        C  0.22918316  0.32079317  0.12785548     0.12100
S631        S  0.24591866  0.31547077  0.08882143    -0.06100
C632        C  0.24618065  0.27034173  0.10398569    -0.09600
C633        C  0.23743537  0.27784492  0.12456424    -0.26200
S634        S  0.18392440  0.41204315  0.16583328    -0.03400
C635        C  0.18146597  0.45619587  0.14999094    -0.16900
C636        C  0.19751303  0.44945265  0.13045689    -0.14900
H637        H  0.22719967  0.40710131  0.09579321     0.20500
H638        H  0.21112191  0.32124930  0.16006095     0.16600
H639        H  0.23523394  0.25315803  0.13615900     0.19100
H640        H  0.19695310  0.47289260  0.11823588     0.12400
C641        C  0.65108107  0.55082429  0.21392610     0.16300
C642        C  0.64633625  0.55286146  0.19252654    -0.32700
C643        C  0.65952559  0.51721686  0.18079333     0.20700
C644        C  0.67800674  0.48165068  0.18977074     0.02900
C645        C  0.68267456  0.47958427  0.21117270    -0.22500
C646        C  0.66819742  0.51462217  0.22295901     0.12100
S647        S  0.63472641  0.58949721  0.23108664    -0.06100
C648        C  0.64971334  0.55577967  0.25062653    -0.09600
C649        C  0.66726927  0.51723560  0.24395507    -0.26200
S650        S  0.69155206  0.44164096  0.17271289    -0.03400
C651        C  0.67037917  0.47246377  0.15342848    -0.16900
C652        C  0.65487633  0.51197292  0.16001699    -0.14900
H653        H  0.63189021  0.58048518  0.18537214     0.20500
H654        H  0.69594064  0.45141123  0.21837428     0.16600
H655        H  0.67789209  0.49187446  0.25401292     0.19100
H656        H  0.64037974  0.53549884  0.15007714     0.12400
C657        C  0.52266500  0.30484416  0.06082858     0.16300
C658        C  0.49481182  0.27548496  0.05128341    -0.32700
C659        C  0.46800058  0.25111189  0.06397051     0.20700
C660        C  0.46909260  0.25576331  0.08518066     0.02900
C661        C  0.49650566  0.28533748  0.09466475    -0.22500
C662        C  0.52315585  0.30966751  0.08202195     0.12100
S663        S  0.55757123  0.33779663  0.04832555    -0.06100
C664        C  0.57228979  0.35879419  0.07191470    -0.09600
C665        C  0.55149843  0.34042422  0.08845626    -0.26200
S666        S  0.43632240  0.22166666  0.09804758    -0.03400
C667        C  0.42085830  0.20053936  0.07465998    -0.16900
C668        C  0.43978293  0.21974973  0.05778523    -0.14900
H669        H  0.49426384  0.27161419  0.03473677     0.20500
H670        H  0.49730010  0.28895217  0.11122514     0.16600
H671        H  0.55618294  0.34975634  0.10436539     0.19100
H672        H  0.43472902  0.20990684  0.04197415     0.12400
C673        C  0.96418470  0.51094971  0.10706606     0.16300
C674        C  0.93781594  0.49423086  0.09145089    -0.32700
C675        C  0.89468791  0.48752223  0.09618114     0.20700
C676        C  0.87849810  0.49823453  0.11534634     0.02900
C677        C  0.90467739  0.51489243  0.13081419    -0.22500
C678        C  0.94771461  0.52031908  0.12631956     0.12100
S679        S  0.01796530  0.51909680  0.10525883    -0.06100
C680        C  0.01791001  0.53356340  0.13092180    -0.09600
C681        C  0.97820940  0.53307087  0.13996611    -0.26200
S682        S  0.82608478  0.48661416  0.11854499    -0.03400
C683        C  0.82563689  0.46576759  0.09397342    -0.16900
C684        C  0.86438099  0.46863574  0.08380369    -0.14900
H685        H  0.95054774  0.48563176  0.07653509     0.20500
H686        H  0.89225431  0.52203873  0.14596672     0.16600
H687        H  0.97209126  0.54072929  0.15595680     0.19100
H688        H  0.87036554  0.45631509  0.06847500     0.12400
C689        C  0.76144565  0.21849831  0.11297208     0.16300
C690        C  0.76726460  0.17399591  0.11372813    -0.32700
C691        C  0.78103805  0.15656191  0.13229210     0.20700
C692        C  0.78789495  0.18220701  0.14951721     0.02900
C693        C  0.78031266  0.22665016  0.14900527    -0.22500
C694        C  0.76733808  0.24427780  0.13024450     0.12100
S695        S  0.75009363  0.24584008  0.09116697    -0.06100
C696        C  0.75303814  0.29272599  0.10533583    -0.09600
C697        C  0.76169929  0.28715711  0.12603508    -0.26200
S698        S  0.81050131  0.15579178  0.16958842    -0.03400
C699        C  0.81104995  0.10992968  0.15448320    -0.16900
C700        C  0.79337343  0.11489938  0.13519376    -0.14900
H701        H  0.76343965  0.15412255  0.10010946     0.20500
H702        H  0.78646900  0.24687412  0.16230020     0.16600
H703        H  0.76527170  0.31303163  0.13713484     0.19100
H704        H  0.79298270  0.09033493  0.12330398     0.12400
C705        C  0.73181697  0.44410504  0.96383780     0.16300
C706        C  0.72725267  0.44435036  0.94241028    -0.32700
C707        C  0.76329166  0.45391707  0.93059109     0.20700
C708        C  0.80186418  0.46427208  0.93960878     0.02900
C709        C  0.80636359  0.46420881  0.96103088    -0.22500
C710        C  0.77069373  0.45325338  0.97282625     0.12100
S711        S  0.69272702  0.43068241  0.98094495    -0.06100
C712        C  0.72957060  0.43619605  0.00034137    -0.09600
C713        C  0.76959695  0.44863110  0.99370784    -0.26200
S714        S  0.84208533  0.47350016  0.92248078    -0.03400
C715        C  0.80690615  0.46156255  0.90302863    -0.16900
C716        C  0.76607092  0.45221312  0.90962623    -0.14900
H717        H  0.69729940  0.43608615  0.93523956     0.20500
H718        H  0.83667780  0.47104696  0.96817479     0.16600
H719        H  0.79677692  0.45338529  0.00365188     0.19100
H720        H  0.74003788  0.44335040  0.89957463     0.12400
C721        C  0.25998612  0.14404363  0.96101282     0.16300
C722        C  0.26171066  0.15261970  0.93994167    -0.32700
C723        C  0.22817706  0.13746425  0.92767895     0.20700
C724        C  0.19472264  0.11412571  0.93585482     0.02900
C725        C  0.19260555  0.10623938  0.95698064    -0.22500
C726        C  0.22578836  0.12201896  0.96929849     0.12100
S727        S  0.29738435  0.15977053  0.97861014    -0.06100
C728        C  0.26583304  0.13764726  0.99735882    -0.09600
C729        C  0.22882294  0.11860970  0.99016211    -0.26200
S730        S  0.15826332  0.09679685  0.91813051    -0.03400
C731        C  0.18798195  0.12223546  0.89964531    -0.16900
C732        C  0.22412284  0.14273211  0.90696370    -0.14900
H733        H  0.28796591  0.17038763  0.93339162     0.20500
H734        H  0.16625759  0.08862964  0.96353895     0.16600
H735        H  0.20513605  0.10342408  0.99976384     0.19100
H736        H  0.24672445  0.15989211  0.89750933     0.12400
C737        C  0.97246548  0.30992521  0.83548812     0.16300
C738        C  0.00314595  0.28279877  0.84383990    -0.32700
C739        C  0.02917440  0.26000303  0.83018367     0.20700
C740        C  0.02504290  0.26389155  0.80907786     0.02900
C741        C  0.99465128  0.29166666  0.80067829    -0.22500
C742        C  0.96848018  0.31454809  0.81439950     0.12100
S743        S  0.93679188  0.33869285  0.84960658    -0.06100
C744        C  0.91610047  0.35755378  0.82691969    -0.09600
C745        C  0.93634288  0.34229449  0.80937268    -0.26200
S746        S  0.05948093  0.23236374  0.79528918    -0.03400
C747        C  0.07979119  0.21426309  0.81827754    -0.16900
C748        C  0.06053111  0.23194184  0.83551212    -0.14900
H749        H  0.00629449  0.27923603  0.86030933     0.20500
H750        H  0.99126309  0.29496650  0.78421042     0.16600
H751        H  0.92736156  0.35024044  0.79380218     0.19100
H752        H  0.06908331  0.22462115  0.85121571     0.12400
C753        C  0.49045472  0.53043687  0.97708959     0.16300
C754        C  0.53119516  0.52017077  0.98398216    -0.32700
C755        C  0.53850136  0.52101931  0.00518201     0.20700
C756        C  0.50640497  0.53113259  0.01893266     0.02900
C757        C  0.46549571  0.54130266  0.01203674    -0.22500
C758        C  0.45829568  0.54086248  0.99075688     0.12100
S759        S  0.47659088  0.53391164  0.95194061    -0.06100
C760        C  0.42695980  0.55038939  0.95969258    -0.09600
C761        C  0.42142953  0.55201035  0.98084778    -0.26200
S762        S  0.52121636  0.52846164  0.04405321    -0.03400
C763        C  0.57118863  0.51347708  0.03595790    -0.16900
C764        C  0.57590731  0.51126180  0.01483073    -0.14900
H765        H  0.55625875  0.51230148  0.97324498     0.20500
H766        H  0.44050702  0.54942462  0.02277207     0.16600
H767        H  0.39300986  0.56315588  0.98850829     0.19100
H768        H  0.60439802  0.50085336  0.00699330     0.12400
C769        C  0.26600242  0.64614237  0.02910302     0.16300
C770        C  0.26839982  0.65285615  0.05035340    -0.32700
C771        C  0.23466415  0.63779792  0.06238031     0.20700
C772        C  0.20025593  0.61637541  0.05378833     0.02900
C773        C  0.19746142  0.61036314  0.03246666    -0.22500
C774        C  0.23096792  0.62599482  0.02040059     0.12100
S775        S  0.30389756  0.66161226  0.01184672    -0.06100
C776        C  0.27171362  0.64161966  0.99268217    -0.09600
C777        C  0.23387180  0.62378766  0.99946377    -0.26200
S778        S  0.16343255  0.59925593  0.07128722    -0.03400
C779        C  0.19426470  0.62238607  0.09024138    -0.16900
C780        C  0.23114698  0.64172822  0.08322053    -0.14900
H781        H  0.29537504  0.66912118  0.05722488     0.20500
H782        H  0.17042333  0.59422417  0.02558537     0.16600
H783        H  0.20975830  0.60990389  0.98955610     0.19100
H784        H  0.25443629  0.65754816  0.09293553     0.12400
C785        C  0.12860854  0.57041950  0.87534876     0.16300
C786        C  0.10198988  0.55540897  0.85963203    -0.32700
C787        C  0.05850116  0.55267388  0.86382892     0.20700
C788        C  0.04215490  0.56294435  0.88301630     0.02900
C789        C  0.06885206  0.57789181  0.89878902    -0.22500
C790        C  0.11227907  0.58191621  0.89438371     0.12100
S791        S  0.18164411  0.57989328  0.87263201    -0.06100
C792        C  0.18167440  0.60120270  0.89714263    -0.09600
C793        C  0.14266379  0.59943346  0.90700043    -0.26200
S794        S  0.98825426  0.55725491  0.88484653    -0.03400
C795        C  0.98791184  0.54213915  0.85933153    -0.16900
C796        C  0.02750907  0.54119407  0.85015518    -0.14900
H797        H  0.11444984  0.54754001  0.84456775     0.20500
H798        H  0.05618911  0.58717517  0.91362819     0.16600
H799        H  0.13636901  0.61238456  0.92218456     0.19100
H800        H  0.03327635  0.53246836  0.83425677     0.12400
C801        C  0.23490207  0.84859215  0.88040299     0.16300
C802        C  0.22407602  0.89206261  0.88033616    -0.32700
C803        C  0.21394448  0.91045341  0.86147781     0.20700
C804        C  0.21485025  0.88671769  0.84335393     0.02900
C805        C  0.22728703  0.84333666  0.84331180    -0.22500
C806        C  0.23707045  0.82470578  0.86233782     0.12100
S807        S  0.24364833  0.82018004  0.90209936    -0.06100
C808        C  0.25076274  0.77525743  0.88691520    -0.09600
C809        C  0.24703833  0.78232867  0.86595173    -0.26200
S810        S  0.19585566  0.91380380  0.82256850    -0.03400
C811        C  0.18694841  0.95737009  0.83857690    -0.16900
C812        C  0.19885419  0.95116409  0.85877076    -0.14900
H813        H  0.22184259  0.91031628  0.89453240     0.20500
H814        H  0.22749106  0.82451547  0.82924728     0.16600
H815        H  0.24980996  0.75769925  0.85418680     0.19100
H816        H  0.19366121  0.97406351  0.87113310     0.12400
C817        C  0.54526023  0.03618426  0.99125154     0.16300
C818        C  0.52869117  0.04038735  0.01113426    -0.32700
C819        C  0.48463436  0.04481774  0.01314135     0.20700
C820        C  0.45813766  0.04541819  0.99615702     0.02900
C821        C  0.47473371  0.04138062  0.97625346    -0.22500
C822        C  0.51878873  0.03665946  0.97425237     0.12100
S823        S  0.59752391  0.02784874  0.98560207    -0.06100
C824        C  0.58351318  0.02433184  0.96005138    -0.09600
C825        C  0.54059724  0.03021642  0.95631368    -0.26200
S826        S  0.40565823  0.05223964  0.00194604    -0.03400
C827        C  0.41961447  0.05439565  0.02754672    -0.16900
C828        C  0.46273157  0.04972947  0.03114845    -0.14900
H829        H  0.54918822  0.03977922  0.02447624     0.20500
H830        H  0.45419960  0.04158834  0.96292062     0.16600
H831        H  0.52577220  0.02773395  0.94133650     0.19100
H832        H  0.47752166  0.05128976  0.04615783     0.12400
C833        C  0.76659392  0.96742170  0.02388800     0.16300
C834        C  0.79024818  0.98517882  0.04023603    -0.32700
C835        C  0.78878015  0.96387800  0.05918850     0.20700
C836        C  0.76487789  0.92665648  0.06146681     0.02900
C837        C  0.74079779  0.90951517  0.04536556    -0.22500
C838        C  0.74202779  0.93078129  0.02660740     0.12100
S839        S  0.76686380  0.98568874  0.99923081    -0.06100
C840        C  0.73284519  0.94409963  0.99289317    -0.09600
C841        C  0.72211938  0.91758703  0.00896288    -0.26200
S842        S  0.76784734  0.90410643  0.08493420    -0.03400
C843        C  0.80138735  0.94534767  0.09230494    -0.16900
C844        C  0.80980799  0.97517687  0.07705069    -0.14900
H845        H  0.80951822  0.01370741  0.03815509     0.20500
H846        H  0.72238420  0.88034904  0.04730615     0.16600
H847        H  0.70300530  0.88870139  0.00751891     0.19100
H848        H  0.83006172  0.00313933  0.07887649     0.12400
C849        C  0.53272669  0.81188229  0.90701227     0.16300
C850        C  0.50788349  0.77954748  0.89789210    -0.32700
C851        C  0.48214964  0.75471905  0.91076836     0.20700
C852        C  0.48110003  0.76172376  0.93182548     0.02900
C853        C  0.50654719  0.79371594  0.94101548    -0.22500
C854        C  0.53242998  0.81859221  0.92810948     0.12100
S855        S  0.56422457  0.84662276  0.89380562    -0.06100
C856        C  0.57767982  0.87047666  0.91691254    -0.09600
C857        C  0.55867891  0.85198924  0.93394954    -0.26200
S858        S  0.44678003  0.72865369  0.94462154    -0.03400
C859        C  0.43411935  0.70487500  0.92135832    -0.16900
C860        C  0.45552904  0.72206860  0.90469650    -0.14900
H861        H  0.50820780  0.77431976  0.88142051     0.20500
H862        H  0.50586496  0.79926097  0.95745629     0.16600
H863        H  0.56277608  0.86321470  0.94961735     0.19100
H864        H  0.45181408  0.71124978  0.88893746     0.12400
C865        C  0.88199475  0.99163351  0.87729624     0.16300
C866        C  0.90697765  0.00895061  0.86172359    -0.32700
C867        C  0.95075961  0.00994762  0.86475473     0.20700
C868        C  0.96924067  0.99553349  0.88275433     0.02900
C869        C  0.94408969  0.97796105  0.89845909    -0.22500
C870        C  0.90001625  0.97596056  0.89516467     0.12100
S871        S  0.82855757  0.98549280  0.87562268    -0.06100
C872        C  0.82997997  0.96043124  0.89905810    -0.09600
C873        C  0.87011504  0.95784990  0.90781642    -0.26200
S874        S  0.02341572  0.00019582  0.88310549    -0.03400
C875        C  0.02046436  0.02038217  0.85854296    -0.16900
C876        C  0.97990085  0.02374939  0.85081297    -0.14900
H877        H  0.89292081  0.02026841  0.84758959     0.20500
H878        H  0.95823957  0.96566660  0.91237522     0.16600
H879        H  0.87717414  0.94233477  0.92225096     0.19100
H880        H  0.97216041  0.03574890  0.83569175     0.12400
C881        C  0.76453416  0.71993289  0.88216452     0.16300
C882        C  0.77301220  0.67592853  0.88152255    -0.32700
C883        C  0.78963314  0.65913737  0.86328215     0.20700
C884        C  0.79694454  0.68483939  0.84630293     0.02900
C885        C  0.78727291  0.72872090  0.84674870    -0.22500
C886        C  0.77114237  0.74569509  0.86512204     0.12100
S887        S  0.74882898  0.74685625  0.90360042    -0.06100
C888        C  0.75102672  0.79334982  0.88949004    -0.09600
C889        C  0.76269327  0.78808699  0.86915482    -0.26200
S890        S  0.82142641  0.65920672  0.82640629    -0.03400
C891        C  0.82209637  0.61359923  0.84125081    -0.16900
C892        C  0.80340736  0.61802078  0.86036573    -0.14900
H893        H  0.76857341  0.65601727  0.89494147     0.20500
H894        H  0.79369486  0.74903846  0.83366460     0.16600
H895        H  0.76682845  0.81399332  0.85830421     0.19100
H896        H  0.80232334  0.59326082  0.87197617     0.12400
C897        C  0.74876267  0.23788590  0.74691392     0.16300
C898        C  0.74920191  0.25556188  0.76676250    -0.32700
C899        C  0.75692687  0.29985140  0.76866271     0.20700
C900        C  0.76414346  0.32543665  0.75164882     0.02900
C901        C  0.76421943  0.30770388  0.73186759    -0.22500
C902        C  0.75633890  0.26352537  0.72996339     0.12100
S903        S  0.73626616  0.18566899  0.74102892    -0.06100
C904        C  0.74066293  0.19893585  0.71545600    -0.09600
C905        C  0.75242204  0.24124057  0.71195703    -0.26200
S906        S  0.77406641  0.37818594  0.75721835    -0.03400
C907        C  0.76924795  0.36546372  0.78280107    -0.16900
C908        C  0.75957921  0.32274291  0.78659921    -0.14900
H909        H  0.74321843  0.23583524  0.78009971     0.20500
H910        H  0.76975159  0.32753652  0.71851830     0.16600
H911        H  0.75505729  0.25578605  0.69693692     0.19100
H912        H  0.75674265  0.30874112  0.80172744     0.12400
C913        C  0.77210077  0.13836664  0.53124649     0.16300
C914        C  0.77661725  0.14070978  0.55271777    -0.32700
C915        C  0.74100723  0.13052836  0.56482705     0.20700
C916        C  0.70304313  0.11740733  0.55601544     0.02900
C917        C  0.69855650  0.11520660  0.53462225    -0.22500
C918        C  0.73365799  0.12648428  0.52254310     0.12100
S919        S  0.81063266  0.15095197  0.51363053    -0.06100
C920        C  0.77395478  0.14133529  0.49445405    -0.09600
C921        C  0.73450368  0.12834798  0.50155116    -0.26200
S922        S  0.66353527  0.10649962  0.57327802    -0.03400
C923        C  0.69794451  0.12111741  0.59263918    -0.16900
C924        C  0.73814850  0.13301144  0.58585331    -0.14900
H925        H  0.80624505  0.15085337  0.55966411     0.20500
H926        H  0.66867446  0.10592471  0.52766627     0.16600
H927        H  0.70753564  0.12104617  0.49181027     0.19100
H928        H  0.76382782  0.14331720  0.59580960     0.12400
C929        C  0.65316906  0.04969299  0.78015041     0.16300
C930        C  0.65807486  0.05468016  0.80139112    -0.32700
C931        C  0.66620596  0.01775115  0.81292601     0.20700
C932        C  0.66997957  0.97748789  0.80385323     0.02900
C933        C  0.66483907  0.97242251  0.78254265    -0.22500
C934        C  0.65604626  0.00940663  0.77101026     0.12100
S935        S  0.64306493  0.09065888  0.76347915    -0.06100
C936        C  0.64210480  0.05307414  0.74395137    -0.09600
C937        C  0.64933309  0.01113639  0.75024984    -0.26200
S938        S  0.67856223  0.93668076  0.82096600    -0.03400
C939        C  0.67572214  0.97440118  0.84044453    -0.16900
C940        C  0.66946934  0.01610332  0.83380273    -0.14900
H941        H  0.65512816  0.08594490  0.80867144     0.20500
H942        H  0.66697206  0.94103953  0.77531053     0.16600
H943        H  0.65014030  0.98338726  0.74010370     0.19100
H944        H  0.66579295  0.04370444  0.84388811     0.12400
C945        C  0.26694016  0.32564366  0.74294068     0.16300
C946        C  0.26428291  0.30886157  0.76276523    -0.32700
C947        C  0.25246150  0.26562945  0.76459414     0.20700
C948        C  0.24369700  0.24014578  0.74751547     0.02900
C949        C  0.24646948  0.25689322  0.72770541    -0.22500
C950        C  0.25829229  0.30009731  0.72586901     0.12100
S951        S  0.28179299  0.37700300  0.73735846    -0.06100
C952        C  0.27687500  0.36356488  0.71175044    -0.09600
C953        C  0.26385412  0.32173306  0.70791992    -0.26200
S954        S  0.22784614  0.18909194  0.75303419    -0.03400
C955        C  0.23243651  0.20252857  0.77863221    -0.16900
C956        C  0.24633716  0.24407920  0.78252104    -0.14900
H957        H  0.27097307  0.32862733  0.77616044     0.20500
H958        H  0.23953038  0.23719205  0.71431972     0.16600
H959        H  0.26007045  0.30748995  0.69278682     0.19100
H960        H  0.24976032  0.25838879  0.79766196     0.12400
C961        C  0.29865089  0.45900312  0.55440714     0.16300
C962        C  0.30169034  0.46136033  0.53294566    -0.32700
C963        C  0.26662130  0.44766471  0.52126367     0.20700
C964        C  0.22936220  0.43394252  0.53045353     0.02900
C965        C  0.22624865  0.43168957  0.55196179    -0.22500
C966        C  0.26203524  0.44367042  0.56363114     0.12100
S967        S  0.33877030  0.47134135  0.57124511    -0.06100
C968        C  0.30658331  0.45391322  0.59087606    -0.09600
C969        C  0.26654651  0.44039419  0.58453935    -0.26200
S970        S  0.19078679  0.41804295  0.51336233    -0.03400
C971        C  0.22605390  0.42809777  0.49371120    -0.16900
C972        C  0.26494772  0.44416464  0.50027069    -0.14900
H973        H  0.33068743  0.47200316  0.52563760     0.20500
H974        H  0.19773396  0.41972711  0.55925147     0.16600
H975        H  0.24222755  0.42815059  0.59471115     0.19100
H976        H  0.29103898  0.45216921  0.49016198     0.12400
C977        C  0.34820170  0.52019684  0.77895213     0.16300
C978        C  0.34864442  0.51561817  0.80034488    -0.32700
C979        C  0.34193820  0.55258061  0.81238776     0.20700
C980        C  0.33330341  0.59209715  0.80363811     0.02900
C981        C  0.33245644  0.59660746  0.78222647    -0.22500
C982        C  0.34088869  0.55995904  0.77018405     0.12100
S983        S  0.35945738  0.48008447  0.76165718    -0.06100
C984        C  0.35598123  0.51768267  0.74247097    -0.09600
C985        C  0.34523792  0.55866394  0.74927311    -0.26200
S986        S  0.32689798  0.63315162  0.82104534    -0.03400
C987        C  0.33768598  0.59690448  0.84017639    -0.16900
C988        C  0.34475864  0.55525253  0.83332542    -0.14900
H989        H  0.35555278  0.48493250  0.80730840     0.20500
H990        H  0.32703451  0.62761459  0.77526908     0.16600
H991        H  0.34197493  0.58642532  0.73945994     0.19100
H992        H  0.35212557  0.52841005  0.84319072     0.12400
C993        C  0.48594404  0.31672519  0.65760842     0.16300
C994        C  0.51749037  0.29087820  0.64884677    -0.32700
C995        C  0.54389848  0.26807578  0.66215987     0.20700
C996        C  0.53923691  0.27087738  0.68331249     0.02900
C997        C  0.50810634  0.29744424  0.69211991    -0.22500
C998        C  0.48152602  0.32024300  0.67875747     0.12100
S999        S  0.44922291  0.34456279  0.64393310    -0.06100
C1000       C  0.42739179  0.36139201  0.66688148    -0.09600
C1001       C  0.44819883  0.34637381  0.68420663    -0.26200
S1002       S  0.57334249  0.23893145  0.69669817    -0.03400
C1003       C  0.59430313  0.22204583  0.67352548    -0.16900
C1004       C  0.57562247  0.24046369  0.65646730    -0.14900
H1005       H  0.52077885  0.28801442  0.63232982     0.20500
H1006       H  0.50425795  0.29960684  0.70862764     0.16600
H1007       H  0.43856526  0.35295529  0.69988326     0.19100
H1008       H  0.58429188  0.23342414  0.64069872     0.12400
C1009       C  0.95715059  0.53988418  0.50077070     0.16300
C1010       C  0.97351617  0.53753685  0.48078388    -0.32700
C1011       C  0.01722098  0.53059771  0.47862878     0.20700
C1012       C  0.04348408  0.52600391  0.49554570     0.02900
C1013       C  0.02710670  0.52822915  0.51549307    -0.22500
C1014       C  0.98349934  0.53527435  0.51765406     0.12100
S1015       S  0.90549495  0.55049863  0.50682280    -0.06100
C1016       C  0.91981279  0.54913661  0.53237093    -0.09600
C1017       C  0.96222696  0.54022662  0.53577812    -0.26200
S1018       S  0.09535829  0.51639771  0.48967174    -0.03400
C1019       C  0.08151763  0.51829537  0.46410513    -0.16900
C1020       C  0.03892365  0.52643974  0.46054590    -0.14900
H1021       H  0.95317887  0.54124665  0.46751451     0.20500
H1022       H  0.04748493  0.52477545  0.52876389     0.16600
H1023       H  0.97722311  0.53960589  0.55074565     0.19100
H1024       H  0.02425845  0.52751941  0.44550979     0.12400
C1025       C  0.76847877  0.62757935  0.46429092     0.16300
C1026       C  0.77112856  0.63007732  0.44280712    -0.32700
C1027       C  0.73524379  0.61777669  0.43132158     0.20700
C1028       C  0.69892393  0.60203251  0.44066119     0.02900
C1029       C  0.69634804  0.59947343  0.46212087    -0.22500
C1030       C  0.73155779  0.61335319  0.47363611     0.12100
S1031       S  0.80725996  0.64373580  0.48115561    -0.06100
C1032       C  0.77256068  0.63292037  0.50092663    -0.09600
C1033       C  0.73367851  0.61656273  0.49460255    -0.26200
S1034       S  0.65847860  0.58973630  0.42397050    -0.03400
C1035       C  0.69017796  0.60780347  0.40430595    -0.16900
C1036       C  0.73027556  0.62135774  0.41049793    -0.14900
H1037       H  0.79934687  0.64245834  0.43540318     0.20500
H1038       H  0.66759713  0.58854583  0.46955715     0.16600
H1039       H  0.70790588  0.60824543  0.50484284     0.19100
H1040       H  0.75422739  0.63417853  0.40028099     0.12400
C1041       C  0.85874925  0.51878396  0.71368957     0.16300
C1042       C  0.86790599  0.51928799  0.69263845    -0.32700
C1043       C  0.85106615  0.55286875  0.68093012     0.20700
C1044       C  0.82509508  0.58398071  0.68950818     0.02900
C1045       C  0.81593445  0.58352808  0.71063172    -0.22500
C1046       C  0.83394492  0.55065613  0.72249810     0.12100
S1047       S  0.87864724  0.48244075  0.73077786    -0.06100
C1048       C  0.85484763  0.51154533  0.75011645    -0.09600
C1049       C  0.83179336  0.54672775  0.74343926    -0.26200
S1050       S  0.80778837  0.62176870  0.67232576    -0.03400
C1051       C  0.83705235  0.59599906  0.65357707    -0.16900
C1052       C  0.85818071  0.55974412  0.66050226    -0.14900
H1053       H  0.88823042  0.49518485  0.68576544     0.20500
H1054       H  0.79656810  0.60830213  0.71760668     0.16600
H1055       H  0.81555038  0.56912759  0.75349983     0.19100
H1056       H  0.87779179  0.53916040  0.65099323     0.12400
C1057       C  0.62582895  0.57890832  0.61735856     0.16300
C1058       C  0.59967808  0.56175186  0.63258109    -0.32700
C1059       C  0.55635850  0.55817793  0.62826903     0.20700
C1060       C  0.53956895  0.57013943  0.60948234     0.02900
C1061       C  0.56582479  0.58754303  0.59420917    -0.22500
C1062       C  0.60924027  0.59196983  0.59869550     0.12100
S1063       S  0.67886252  0.58776050  0.62016665    -0.06100
C1064       C  0.67887060  0.61031236  0.59609073    -0.09600
C1065       C  0.63962451  0.61015805  0.58639666    -0.26200
S1066       S  0.48574673  0.56314982  0.60758752    -0.03400
C1067       C  0.48623307  0.54520750  0.63255927    -0.16900
C1068       C  0.52596210  0.54420170  0.64154683    -0.14900
H1069       H  0.61241770  0.55241518  0.64733547     0.20500
H1070       H  0.55291058  0.59790257  0.57965899     0.16600
H1071       H  0.63342880  0.62374556  0.57142943     0.19100
H1072       H  0.53219011  0.53412990  0.65715528     0.12400
C1073       C  0.69962195  0.88840520  0.64737445     0.16300
C1074       C  0.71038571  0.84465559  0.64751066    -0.32700
C1075       C  0.73002028  0.82759408  0.62992161     0.20700
C1076       C  0.73878123  0.85324738  0.61307760     0.02900
C1077       C  0.72909515  0.89714578  0.61316548    -0.22500
C1078       C  0.70910822  0.91402563  0.63062714     0.12100
S1079       S  0.67213501  0.91419091  0.66633705    -0.06100
C1080       C  0.67345713  0.95996985  0.65154345    -0.09600
C1081       C  0.69463621  0.95526472  0.63301872    -0.26200
S1082       S  0.75852824  0.82614796  0.59244472    -0.03400
C1083       C  0.75522589  0.77960688  0.60656370    -0.16900
C1084       C  0.74011070  0.78515121  0.62639666    -0.14900
H1085       H  0.70241124  0.82448948  0.66044800     0.20500
H1086       H  0.73539890  0.91692176  0.59987527     0.16600
H1087       H  0.69774563  0.98014764  0.62155564     0.14300
H1088       H  0.73442624  0.75932461  0.63712545     0.12400
C1089       C  0.95987365  0.04212605  0.49351787     0.16300
C1090       C  0.97522894  0.03426629  0.51337999    -0.32700
C1091       C  0.01929279  0.03019853  0.51587531     0.20700
C1092       C  0.04684785  0.03405503  0.49939364     0.02900
C1093       C  0.03152076  0.04217384  0.47960590    -0.22500
C1094       C  0.98753980  0.04583693  0.47707787     0.12100
S1095       S  0.90764189  0.04863305  0.48714070    -0.06100
C1096       C  0.92335815  0.05627978  0.46203588    -0.09600
C1097       C  0.96682265  0.05373849  0.45902738    -0.26200
S1098       S  0.09896438  0.02606066  0.50537988    -0.03400
C1099       C  0.08362464  0.01702935  0.53038693    -0.16900
C1100       C  0.04025542  0.02072922  0.53373408    -0.14900
H1101       H  0.95378778  0.03111175  0.52627851     0.20500
H1102       H  0.05292984  0.04500522  0.46667757     0.16600
H1103       H  0.98264148  0.05877739  0.44446764     0.19100
H1104       H  0.02466890  0.01503722  0.54829537     0.12400
C1105       C  0.15796268  0.04869253  0.71110799     0.16300
C1106       C  0.15828329  0.05363935  0.68975824    -0.32700
C1107       C  0.16974358  0.01798129  0.67771378     0.20700
C1108       C  0.18176737  0.97936103  0.68640775     0.02900
C1109       C  0.18159827  0.97443246  0.70782281    -0.22500
C1110       C  0.16876505  0.00975829  0.71987272     0.12100
S1111       S  0.14252394  0.08739357  0.72831867    -0.06100
C1112       C  0.14918209  0.05027430  0.74750254    -0.09600
C1113       C  0.16364496  0.01046644  0.74076866    -0.26200
S1114       S  0.19323967  0.93966292  0.66885359    -0.03400
C1115       C  0.18014168  0.97522987  0.64973518    -0.16900
C1116       C  0.16865812  0.01571533  0.65676368    -0.14900
H1117       H  0.14872935  0.08358479  0.68279773     0.20500
H1118       H  0.18979236  0.94404574  0.71475423     0.16600
H1119       H  0.16949568  0.98324560  0.75063599     0.19100
H1120       H  0.15877620  0.04187444  0.64699668     0.12400
C1121       C  0.23624448  0.94265303  0.46116991     0.16300
C1122       C  0.23188512  0.94285245  0.43982976    -0.32700
C1123       C  0.26765689  0.95363841  0.42819768     0.20700
C1124       C  0.30597173  0.96491356  0.43722823     0.02900
C1125       C  0.31029232  0.96500196  0.45864394    -0.22500
C1126       C  0.27472114  0.95305714  0.47028421     0.12100
S1127       S  0.19723979  0.92780112  0.47793400    -0.06100
C1128       C  0.23353625  0.93453077  0.49737423    -0.09600
C1129       C  0.27332601  0.94837536  0.49108934    -0.26200
S1130       S  0.34598327  0.97500287  0.42008683    -0.03400
C1131       C  0.31077436  0.96244175  0.40072832    -0.16900
C1132       C  0.27025352  0.95227183  0.40734798    -0.14900
H1133       H  0.20227551  0.93367072  0.43256844     0.20500
H1134       H  0.34032881  0.97266813  0.46588167     0.16600
H1135       H  0.30010375  0.95392586  0.50120564     0.19100
H1136       H  0.24427994  0.94282563  0.39737244     0.12400
C1137       C  0.98492835  0.75316819  0.56038723     0.16300
C1138       C  0.01376786  0.78149154  0.55101415    -0.32700
C1139       C  0.03570147  0.81075293  0.56374611     0.20700
C1140       C  0.02892754  0.81166449  0.58480579     0.02900
C1141       C  0.00054637  0.78319916  0.59415195    -0.22500
C1142       C  0.97889943  0.75394375  0.58149441     0.12100
S1143       S  0.95472219  0.71554536  0.54779199    -0.06100
C1144       C  0.93445506  0.70042215  0.57128447    -0.09600
C1145       C  0.95026662  0.72362590  0.58784676    -0.26200
S1146       S  0.05700144  0.85010556  0.59764228    -0.03400
C1147       C  0.07851563  0.86551895  0.57447842    -0.16900
C1148       C  0.06454317  0.84153302  0.55768599    -0.14900
H1149       H  0.01869638  0.78089786  0.53455051     0.20500
H1150       H  0.99540094  0.78398024  0.61060450     0.16600
H1151       H  0.94122186  0.71861145  0.60370769     0.19100
H1152       H  0.07412427  0.84696103  0.54193906     0.12400
C1153       C  0.43776359  0.02987624  0.62674686     0.16300
C1154       C  0.39445838  0.01987887  0.62627266    -0.32700
C1155       C  0.37880414  0.99819012  0.60893914     0.20700
C1156       C  0.40503346  0.98745273  0.59261144     0.02900
C1157       C  0.44836420  0.99836392  0.59287682    -0.22500
C1158       C  0.46423430  0.01960871  0.61042025     0.12100
S1159       S  0.46303929  0.05124299  0.64750417    -0.06100
C1160       C  0.51012558  0.04621178  0.63431446    -0.09600
C1161       C  0.50605410  0.02961074  0.61455174    -0.26200
S1162       S  0.38030726  0.95836374  0.57369920    -0.03400
C1163       C  0.33418772  0.96072024  0.58797700    -0.16900
C1164       C  0.33813850  0.98327755  0.60632349    -0.14900
H1165       H  0.37415356  0.02718424  0.63924295     0.20500
H1166       H  0.46905230  0.98925630  0.58032029     0.16600
H1167       H  0.53235299  0.02236420  0.60443471     0.19100
H1168       H  0.31301124  0.98722197  0.61751076     0.12400
C1169       C  0.29490076  0.68327575  0.64623055     0.16300
C1170       C  0.28571748  0.72726692  0.64554422    -0.32700
C1171       C  0.27176975  0.74386168  0.62678606     0.20700
C1172       C  0.26671021  0.71759359  0.60961047     0.02900
C1173       C  0.27440972  0.67345485  0.61049476    -0.22500
C1174       C  0.28888976  0.65704070  0.62912831     0.12100
S1175       S  0.31791045  0.65822035  0.66653731    -0.06100
C1176       C  0.31957772  0.61208446  0.65173359    -0.09600
C1177       C  0.30221395  0.61591818  0.63232636    -0.26200
S1178       S  0.25382434  0.74403712  0.58779336    -0.03400
C1179       C  0.25496440  0.79107691  0.60191551    -0.16900
C1180       C  0.26428830  0.78627717  0.62253262    -0.14900
H1181       H  0.29112509  0.74796926  0.65874690     0.20500
H1182       H  0.27118687  0.65315692  0.59697985     0.16600
H1183       H  0.30232193  0.59089386  0.62065381     0.19100
H1184       H  0.26729941  0.81245288  0.63350805     0.12400
loop_ 
_geom_bond_atom_site_label_1 
_geom_bond_atom_site_label_2 
_geom_bond_distance 
_geom_bond_site_symmetry_2 
_ccdc_geom_bond_type 
O1           Ni7   1.917       .  S
O1           C22   1.272       .  A
O2          Ni25   1.921       .  S
O2           C11   1.273       .  A
O3           Ni7   1.877       .  S
O3          Ni25   1.879       .  S
O3          Ni19   1.882       .  S
O3           H26   0.966       .  S
C4           O21   1.265   1_545  A
C4           O13   1.269   1_545  A
C4         C1099   1.477       .  S
O5          Ni24   1.913       .  S
O5           C11   1.271       .  A
O6          Ni24   1.897       .  S
O6            C8   1.276       .  A
Ni7          O10   1.907       .  S
Ni7          O12   1.905       .  S
C8           O18   1.290       .  A
C8         C1147   1.475       .  S
O9          Ni25   1.938       .  S
O9           C15   1.285       .  A
O10          C15   1.278       .  A
C11        C1115   1.472       .  S
O12          C14   1.266       .  A
O13         Ni24   1.937       .  S
C14          O20   1.273       .  A
C14        C1163   1.477       .  S
C15        C1179   1.463       .  S
H16          O17   0.966       .  S
O17         Ni25   1.952       .  S
O17         Ni19   1.906       .  S
O17         Ni24   1.904       .  S
O18         Ni19   1.976       .  S
Ni19         O23   1.910       .  S
Ni19         O21   1.910       .  S
O20         Ni25   1.933       .  S
C22          O23   1.274       .  A
C22        C1128   1.465       .  S
O27         Ni33   1.934       .  S
O27          C48   1.274       .  A
O28         Ni51   1.932       .  S
O28          C37   1.276       .  A
O29         Ni33   1.887       .  S
O29         Ni51   1.894       .  S
O29         Ni45   1.884       .  S
O29          H52   0.966       .  S
C30          O47   1.264       .  A
C30          O39   1.270       .  A
C30        C1016   1.469       .  S
O31         Ni50   1.912       .  S
O31          C37   1.271       .  A
O32         Ni50   1.910       .  S
O32          C34   1.277       .  A
Ni33         O36   1.915       .  S
Ni33         O38   1.909       .  S
C34          O44   1.283       .  A
C34        C1144   1.471       .  S
O35         Ni51   1.944       .  S
O35          C41   1.286       .  A
O36          C41   1.279       .  A
C37        C1051   1.482       .  S
O38          C40   1.268       .  A
O39         Ni50   1.931       .  S
C40          O46   1.270       .  A
C40        C1064   1.473       .  S
C41        C1083   1.470       .  S
H42          O43   0.966       .  S
O43         Ni51   1.946       .  S
O43         Ni45   1.910       .  S
O43         Ni50   1.908       .  S
O44         Ni45   1.960       .  S
Ni45         O49   1.912       .  S
Ni45         O47   1.903       .  S
O46         Ni51   1.920       .  S
C48          O49   1.270       .  A
C48        C1032   1.474       .  S
O53         Ni59   1.923       .  S
O53          C74   1.272       .  A
O54         Ni77   1.914       .  S
O54          C63   1.272       .  A
O55         Ni59   1.905       .  S
O55         Ni77   1.907       .  S
O55         Ni71   1.940       .  S
O55          H78   0.966       .  S
C56          O73   1.283       .  A
C56          O65   1.279       .  A
C56        C1067   1.467       .  S
O57         Ni76   1.927       .  S
O57          C63   1.272       .  A
O58         Ni76   1.899       .  S
O58          C60   1.265       .  A
Ni59         O62   1.933       .  S
Ni59         O64   1.909       .  S
C60          O70   1.270       .  A
C60        C1176   1.464       .  S
O61         Ni77   1.895       .  S
O61          C67   1.262       .  A
O62          C67   1.271       .  A
C63         C984   1.475       .  S
O64          C66   1.278       .  A
O65         Ni76   1.913       .  S
C66          O72   1.287       .  A
C66        C1000   1.477       .  S
C67         C952   1.463       .  S
H68          O69   0.966       .  S
O69         Ni77   1.882       .  S
O69         Ni71   1.891       .  S
O69         Ni76   1.883       .  S
O70         Ni71   1.918       .  S
Ni71         O75   1.922       .  S
Ni71         O73   1.936       .  S
O72         Ni77   1.970       .  S
C74          O75   1.274       .  A
C74         C968   1.478       .  S
O79         Ni85   1.918       .  S
O79         C100   1.271       .  A
O80        Ni103   1.915       .  S
O80          C89   1.272       .  A
O81         Ni85   1.908       .  S
O81        Ni103   1.913       .  S
O81         Ni97   1.947       .  S
O81         H104   0.966       .  S
C82          O99   1.285       .  A
C82          O91   1.277       .  A
C82        C1160   1.472       .  S
O83        Ni102   1.926       .  S
O83          C89   1.271       .  A
O84        Ni102   1.903   1_565  S
O84          C86   1.267       .  A
Ni85         O88   1.925       .  S
Ni85         O90   1.914       .  S
C86          O96   1.272   1_565  A
C86        C1080   1.473       .  S
O87        Ni103   1.908       .  S
O87          C93   1.265       .  A
O88          C93   1.269       .  A
C89         C936   1.473       .  S
O90          C92   1.279       .  A
O91        Ni102   1.911       .  S
C92          O98   1.284       .  A
C92        C1003   1.475       .  S
C93         C904   1.469       .  S
H94          O95   0.966       .  S
O95        Ni103   1.889       .  S
O95         Ni97   1.896       .  S
O95        Ni102   1.888       .  S
O96         Ni97   1.927       .  S
Ni97        O101   1.925       .  S
Ni97         O99   1.946       .  S
O98        Ni103   1.960       .  S
C100        O101   1.274       .  A
C100        C923   1.478       .  S
O105       Ni111   1.909       .  S
O105        C126   1.270       .  A
O106       Ni129   1.910       .  S
O106        C115   1.273       .  A
O107       Ni111   1.902       .  S
O107       Ni129   1.905       .  S
O107       Ni123   1.949       .  S
O107        H130   0.966       .  S
C108        O125   1.284       .  A
C108        O117   1.279       .  A
C108        C888   1.459       .  S
O109       Ni128   1.925       .  S
O109        C115   1.272       .  A
O110       Ni128   1.908       .  S
O110        C112   1.267       .  A
Ni111       O114   1.932       .  S
Ni111       O116   1.899       .  S
C112        O122   1.271       .  A
C112        C872   1.471       .  S
O113       Ni129   1.907   1_545  S
O113        C119   1.264       .  A
O114        C119   1.269   1_565  A
C115        C840   1.460       .  S
O116        C118   1.276       .  A
O117       Ni128   1.912       .  S
C118        O124   1.290       .  A
C118        C856   1.474       .  S
C119        C824   1.474       .  S
H120        O121   0.966       .  S
O121       Ni129   1.880       .  S
O121       Ni123   1.880       .  S
O121       Ni128   1.880       .  S
O122       Ni123   1.918       .  S
Ni123       O127   1.926       .  S
Ni123       O125   1.931       .  S
O124       Ni129   1.975       .  S
C126        O127   1.273       .  A
C126        C939   1.471       .  S
O131       Ni137   1.918       .  S
O131        C152   1.270       .  A
O132       Ni155   1.916       .  S
O132        C141   1.273       .  A
O133       Ni137   1.905       .  S
O133       Ni155   1.916       .  S
O133       Ni149   1.951       .  S
O133        H156   0.966       .  S
C134        O151   1.283       .  A
C134        O143   1.279       .  A
C134        C808   1.470       .  S
O135       Ni154   1.921       .  S
O135        C141   1.271       .  A
O136       Ni154   1.905       .  S
O136        C138   1.266       .  A
Ni137       O140   1.923       .  S
Ni137       O142   1.912       .  S
C138        O148   1.270       .  A
C138        C792   1.474       .  S
O139       Ni155   1.917       .  S
O139        C145   1.268       .  A
O140        C145   1.268       .  A
C141        C776   1.467       .  S
O142        C144   1.279       .  A
O143       Ni154   1.913       .  S
C144        O150   1.286       .  A
C144        C859   1.477       .  S
C145        C760   1.473       .  S
H146        O147   0.966       .  S
O147       Ni155   1.887       .  S
O147       Ni149   1.884       .  S
O147       Ni154   1.885       .  S
O148       Ni149   1.925       .  S
Ni149       O153   1.912       .  S
Ni149       O151   1.937       .  S
O150       Ni155   1.962       .  S
C152        O153   1.268       .  A
C152        C987   1.469       .  S
O157       Ni163   1.932       .  S
O157        C178   1.272       .  A
O158       Ni181   1.909       .  S
O158        C167   1.270       .  A
O159       Ni163   1.894       .  S
O159       Ni181   1.894       .  S
O159       Ni175   1.887       .  S
O159        H182   0.966       .  S
C160        O177   1.263       .  A
C160        O169   1.270       .  A
C160        C955   1.461       .  S
O161       Ni180   1.916       .  S
O161        C167   1.270       .  A
O162       Ni180   1.905       .  S
O162        C164   1.274       .  A
Ni163       O166   1.921       .  S
Ni163       O168   1.903   1_545  S
C164        O174   1.284       .  A
C164        C747   1.479       .  S
O165       Ni181   1.925       .  S
O165        C171   1.278       .  A
O166        C171   1.279       .  A
C167        C731   1.467       .  S
O168        C170   1.266       .  A
O169       Ni180   1.927       .  S
C170        O176   1.272   1_565  A
C170        C811   1.470       .  S
C171        C875   1.464       .  S
H172        O173   0.966       .  S
O173       Ni181   1.933       .  S
O173       Ni175   1.910       .  S
O173       Ni180   1.910       .  S
O174       Ni175   1.969       .  S
Ni175       O179   1.910       .  S
Ni175       O177   1.894       .  S
O176       Ni181   1.927       .  S
C178        O179   1.269       .  A
C178       C1112   1.473       .  S
O183       Ni189   1.934       .  S
O183        C204   1.273       .  A
O184       Ni207   1.921       .  S
O184        C193   1.272       .  A
O185       Ni189   1.887       .  S
O185       Ni207   1.892       .  S
O185       Ni201   1.884       .  S
O185        H208   0.966       .  S
C186        O203   1.262       .  A
C186        O195   1.269       .  A
C186        C907   1.464       .  S
O187       Ni206   1.914       .  S
O187        C193   1.270       .  A
O188       Ni206   1.909       .  S
O188        C190   1.278       .  A
Ni189       O192   1.923       .  S
Ni189       O194   1.899       .  S
C190        O200   1.287       .  A
C190        C744   1.475       .  S
O191       Ni207   1.930       .  S
O191        C197   1.282       .  A
O192        C197   1.280       .  A
C193        C715   1.472       .  S
O194        C196   1.265       .  A
O195       Ni206   1.927       .  S
C196        O202   1.269       .  A
C196        C891   1.463       .  S
C197        C795   1.469       .  S
H198        O199   0.966       .  S
O199       Ni207   1.943       .  S
O199       Ni201   1.906       .  S
O199       Ni206   1.905       .  S
O200       Ni201   1.965       .  S
Ni201       O205   1.914       .  S
Ni201       O203   1.899       .  S
O202       Ni207   1.914       .  S
C204        O205   1.271       .  A
C204       C1048   1.472       .  S
O209       Ni215   1.928       .  S
O209        C230   1.275       .  A
O210       Ni233   1.923       .  S
O210        C219   1.272       .  A
O211       Ni215   1.883       .  S
O211       Ni233   1.887       .  S
O211       Ni227   1.890       .  S
O211        H234   0.966       .  S
C212        O229   1.270       .  A
C212        O221   1.268       .  A
C212        C763   1.472       .  S
O213       Ni232   1.915       .  S
O213        C219   1.270       .  A
O214       Ni232   1.914       .  S
O214        C216   1.279       .  A
Ni215       O218   1.919       .  S
Ni215       O220   1.914       .  S
C216        O226   1.285       .  A
C216        C664   1.477       .  S
O217       Ni233   1.936       .  S
O217        C223   1.283       .  A
O218        C223   1.280       .  A
C219        C651   1.476       .  S
O220        C222   1.268       .  A
O221       Ni232   1.922       .  S
C222        O228   1.272       .  A
C222        C683   1.478       .  S
C223        C696   1.469       .  S
H224        O225   0.966       .  S
O225       Ni233   1.945       .  S
O225       Ni227   1.915       .  S
O225       Ni232   1.907       .  S
O226       Ni227   1.962       .  S
Ni227       O231   1.918       .  S
Ni227       O229   1.916       .  S
O228       Ni233   1.926       .  S
C230        O231   1.275       .  A
C230        C712   1.476       .  S
O235       Ni241   1.918       .  S
O235        C256   1.271       .  A
O236       Ni259   1.923       .  S
O236        C245   1.273       .  A
O237       Ni241   1.908       .  S
O237       Ni259   1.914       .  S
O237       Ni253   1.939       .  S
O237        H260   0.965       .  S
C238        O255   1.281       .  A
C238        O247   1.279       .  A
C238        C680   1.474       .  S
O239       Ni258   1.927       .  S
O239        C245   1.272       .  A
O240       Ni258   1.900       .  S
O240        C242   1.266       .  A
Ni241       O244   1.922       .  S
Ni241       O246   1.907       .  S
C242        O252   1.273       .  A
C242        C635   1.469       .  S
O243       Ni259   1.905       .  S
O243        C249   1.266       .  A
O244        C249   1.270       .  A
C245        C600   1.479       .  S
O246        C248   1.277       .  A
O247       Ni258   1.918       .  S
C248        O254   1.284       .  A
C248        C619   1.475       .  S
C249        C584   1.466       .  S
H250        O251   0.966       .  S
O251       Ni259   1.894       .  S
O251       Ni253   1.894       .  S
O251       Ni258   1.884       .  S
O252       Ni253   1.929       .  S
Ni253       O257   1.913       .  S
Ni253       O255   1.937       .  S
O254       Ni259   1.962       .  S
C256        O257   1.271       .  A
C256        C779   1.470       .  S
O261       Ni267   1.926       .  S
O261        C282   1.274       .  A
O262       Ni285   1.931       .  S
O262        C271   1.275       .  A
O263       Ni267   1.877       .  S
O263       Ni285   1.883       .  S
O263       Ni279   1.878       .  S
O263        H286   0.966       .  S
C264        O281   1.265       .  A
C264        O273   1.268       .  A
C264        C827   1.476       .  S
O265       Ni284   1.910       .  S
O265        C271   1.270       .  A
O266       Ni284   1.902       .  S
O266        C268   1.277       .  A
Ni267       O270   1.915       .  S
Ni267       O272   1.907       .  S
C268        O278   1.289       .  A
C268        C667   1.472       .  S
O269       Ni285   1.941       .  S
O269        C275   1.287       .  A
O270        C275   1.280       .  A
C271        C552   1.478       .  S
O272        C274   1.267       .  A
O273       Ni284   1.932       .  S
C274        O280   1.271       .  A
C274        C571   1.473       .  S
C275        C632   1.467       .  S
H276        O277   0.966       .  S
O277       Ni285   1.955       .  S
O277       Ni279   1.912       .  S
O277       Ni284   1.905       .  S
O278       Ni279   1.971       .  S
Ni279       O283   1.914       .  S
Ni279       O281   1.911       .  S
O280       Ni285   1.923       .  S
C282        O283   1.273       .  A
C282        C728   1.468   1_554  S
O287       Ni293   1.896       .  S
O287        C308   1.267       .  A
O288       Ni311   1.915       .  S
O288        C297   1.273   1_565  A
O289       Ni293   1.902       .  S
O289       Ni311   1.914       .  S
O289       Ni305   1.943       .  S
O289        H312   0.967       .  S
C290        O307   1.284       .  A
C290        O299   1.280       .  A
C290        C568   1.473       .  S
O291       Ni310   1.925       .  S
O291        C297   1.272       .  A
O292       Ni310   1.901       .  S
O292        C294   1.266       .  A
Ni293       O296   1.916       .  S
Ni293       O298   1.897       .  S
C294        O304   1.272       .  A
C294        C699   1.471       .  S
O295       Ni311   1.912       .  S
O295        C301   1.268       .  A
O296        C301   1.266       .  A
C297        C536   1.472       .  S
O298        C300   1.272       .  A
O299       Ni310   1.915       .  S
C300        O306   1.285       .  A
C300        C616   1.471       .  S
C301        C523   1.466       .  S
H302        O303   0.966       .  S
O303       Ni311   1.891       .  S
O303       Ni305   1.892       .  S
O303       Ni310   1.883   1_565  S
O304       Ni305   1.928   1_545  S
Ni305       O309   1.928       .  S
Ni305       O307   1.940   1_565  S
O306       Ni311   1.970       .  S
C308        O309   1.273       .  A
C308        C843   1.473       .  S
O313       Ni319   1.920       .  S
O313        C334   1.272       .  A
O314       Ni337   1.917       .  S
O314        C323   1.272       .  A
O315       Ni319   1.912       .  S
O315       Ni337   1.914       .  S
O315       Ni331   1.946       .  S
O315        H338   0.966       .  S
C316        O333   1.280       .  A
C316        O325   1.279       .  A
C316        C488   1.462       .  S
O317       Ni336   1.930       .  S
O317        C323   1.274       .  A
O318       Ni336   1.906       .  S
O318        C320   1.267       .  A
Ni319       O322   1.938       .  S
Ni319       O324   1.909       .  S
C320        O330   1.274       .  A
C320        C504   1.478       .  S
O321       Ni337   1.906       .  S
O321        C327   1.265       .  A
O322        C327   1.271       .  A
C323        C920   1.477       .  S
O324        C326   1.277       .  A
O325       Ni336   1.917       .  S
C326        O332   1.285       .  A
C326        C475   1.476       .  S
C327       C1096   1.476       .  S
H328        O329   0.966       .  S
O329       Ni337   1.884       .  S
O329       Ni331   1.891       .  S
O329       Ni336   1.885       .  S
O330       Ni331   1.936       .  S
Ni331       O335   1.917       .  S
Ni331       O333   1.927       .  S
O332       Ni337   1.965       .  S
C334        O335   1.271       .  A
C334        C539   1.474       .  S
O339       Ni345   1.918       .  S
O339        C360   1.271       .  A
O340       Ni363   1.917       .  S
O340        C349   1.272       .  A
O341       Ni345   1.909       .  S
O341       Ni363   1.910       .  S
O341       Ni357   1.945       .  S
O341        H364   0.967       .  S
C342        O359   1.282       .  A
C342        O351   1.282       .  A
C342        C456   1.476       .  S
O343       Ni362   1.937       .  S
O343        C349   1.275       .  A
O344       Ni362   1.902       .  S
O344        C346   1.267       .  A
Ni345       O348   1.932       .  S
Ni345       O350   1.912       .  S
C346        O356   1.274       .  A
C346        C440   1.471       .  S
O347       Ni363   1.906       .  S
O347        C353   1.266       .  A
O348        C353   1.270       .  A
C349        C971   1.480       .  S
O350        C352   1.278       .  A
O351       Ni362   1.922       .  S
C352        O358   1.284       .  A
C352        C472   1.474       .  S
C353       C1019   1.470       .  S
H354        O355   0.966       .  S
O355       Ni363   1.890       .  S
O355       Ni357   1.895       .  S
O355       Ni362   1.883       .  S
O356       Ni357   1.927       .  S
Ni357       O361   1.927       .  S
Ni357       O359   1.939       .  S
O358       Ni363   1.960       .  S
C360        O361   1.274       .  A
C360        C603   1.476       .  S
O365       Ni371   1.923       .  S
O365        C386   1.271       .  A
O366       Ni389   1.924       .  S
O366        C375   1.274       .  A
O367       Ni371   1.883       .  S
O367       Ni389   1.892       .  S
O367       Ni383   1.888       .  S
O367        H390   0.966       .  S
C368        O385   1.268       .  A
C368        O377   1.268       .  A
C368        C520   1.464       .  S
O369       Ni388   1.917       .  S
O369        C375   1.271       .  A
O370       Ni388   1.914       .  S
O370        C372   1.279       .  A
Ni371       O374   1.912       .  S
Ni371       O376   1.900       .  S
C372        O382   1.284       .  A
C372        C427   1.474       .  S
O373       Ni389   1.943       .  S
O373        C379   1.284       .  A
O374        C379   1.278       .  A
C375       C1035   1.475       .  S
O376        C378   1.265       .  A
O377       Ni388   1.922       .  S
C378        O384   1.270       .  A
C378        C491   1.467       .  S
C379        C443   1.468       .  S
H380        O381   0.966       .  S
O381       Ni389   1.941       .  S
O381       Ni383   1.912       .  S
O381       Ni388   1.906       .  S
O382       Ni383   1.956       .  S
Ni383       O387   1.925       .  S
Ni383       O385   1.906       .  S
O384       Ni389   1.921       .  S
C386        O387   1.274       .  A
C386        C648   1.476       .  S
O391       Ni397   1.928       .  S
O391        C412   1.274       .  A
O392       Ni415   1.923       .  S
O392        C401   1.272       .  A
O393       Ni397   1.886   1_565  S
O393       Ni415   1.888       .  S
O393       Ni409   1.881       .  S
O393        H416   0.966       .  S
C394        O411   1.262       .  A
C394        O403   1.266       .  A
C394        C587   1.464       .  S
O395       Ni414   1.900       .  S
O395        C401   1.268       .  A
O396       Ni414   1.896       .  S
O396        C398   1.276       .  A
Ni397       O400   1.921       .  S
Ni397       O402   1.914       .  S
C398        O408   1.290       .  A
C398        C424   1.469       .  S
O399       Ni415   1.937   1_545  S
O399        C405   1.284       .  A
O400        C405   1.280       .  A
C401       C1131   1.466       .  S
O402        C404   1.267       .  A
O403       Ni414   1.924       .  S
C404        O410   1.269       .  A
C404        C459   1.476       .  S
C405        C507   1.474       .  S
H406        O407   0.966       .  S
O407       Ni415   1.950       .  S
O407       Ni409   1.903       .  S
O407       Ni414   1.904       .  S
O408       Ni409   1.973       .  S
Ni409       O413   1.918       .  S
Ni409       O411   1.902       .  S
O410       Ni415   1.918   1_545  S
C412        O413   1.273   1_545  A
C412        C555   1.475       .  S
C417        S423   1.702       .  A
C417        C422   1.387       .  A
C417        C418   1.400       .  A
C418        C419   1.401       .  A
C418        H429   1.083       .  S
C419        C428   1.371       .  A
C419        C420   1.387       .  A
C420        S426   1.707       .  A
C420        C421   1.404       .  A
C421        C422   1.403       .  A
C421        H430   1.083       .  S
C422        C425   1.374       .  A
S423        C424   1.723       .  A
C424        C425   1.386       .  A
C425        H431   1.083       .  S
S426        C427   1.725       .  A
C427        C428   1.387       .  A
C428        H432   1.083       .  S
C433        S439   1.708       .  A
C433        C438   1.387       .  A
C433        C434   1.406       .  A
C434        C435   1.405       .  A
C434        H445   1.083       .  S
C435        C444   1.378       .  A
C435        C436   1.388       .  A
C436        S442   1.697       .  A
C436        C437   1.397       .  A
C437        C438   1.397       .  A
C437        H446   1.083       .  S
C438        C441   1.368       .  A
S439        C440   1.728       .  A
C440        C441   1.383       .  A
C441        H447   1.083       .  S
S442        C443   1.721       .  A
C443        C444   1.387       .  A
C444        H448   1.083       .  S
C449        S455   1.721       .  A
C449        C454   1.386       .  A
C449        C450   1.410       .  A
C450        C451   1.412       .  A
C450        H461   1.083       .  S
C451        C460   1.379       .  A
C451        C452   1.387       .  A
C452        S458   1.699       .  A
C452        C453   1.394       .  A
C453        C454   1.396       .  A
C453        H462   1.083       .  S
C454        C457   1.362       .  A
S455        C456   1.729       .  A
C456        C457   1.383       .  A
C457        H463   1.083       .  S
S458        C459   1.719       .  A
C459        C460   1.394       .  A
C460        H464   1.083       .  S
C465        S471   1.707       .  A
C465        C470   1.387       .  A
C465        C466   1.401       .  A
C466        C467   1.402   1_455  A
C466        H477   1.083   1_455  S
C467        C476   1.371       .  A
C467        C468   1.387       .  A
C468        S474   1.710       .  A
C468        C469   1.404   1_655  A
C469        C470   1.405       .  A
C469        H478   1.083       .  S
C470        C473   1.373       .  A
S471        C472   1.722       .  A
C472        C473   1.389       .  A
C473        H479   1.083       .  S
S474        C475   1.725       .  A
C475        C476   1.387       .  A
C476        H480   1.083       .  S
C481        S487   1.695       .  A
C481        C486   1.388       .  A
C481        C482   1.395       .  A
C482        C483   1.395       .  A
C482        H493   1.083       .  S
C483        C492   1.365       .  A
C483        C484   1.388       .  A
C484        S490   1.705       .  A
C484        C485   1.404       .  A
C485        C486   1.403       .  A
C485        H494   1.083       .  S
C486        C489   1.374       .  A
S487        C488   1.719       .  A
C488        C489   1.386       .  A
C489        H495   1.083       .  S
S490        C491   1.726       .  A
C491        C492   1.381       .  A
C492        H496   1.083       .  S
C497        S503   1.708       .  A
C497        C502   1.387       .  A
C497        C498   1.407       .  A
C498        C499   1.405       .  A
C498        H509   1.083       .  S
C499        C508   1.380       .  A
C499        C500   1.388       .  A
C500        S506   1.700       .  A
C500        C501   1.401       .  A
C501        C502   1.401       .  A
C501        H510   1.083       .  S
C502        C505   1.374       .  A
S503        C504   1.727       .  A
C504        C505   1.387       .  A
C505        H511   1.083       .  S
S506        C507   1.724       .  A
C507        C508   1.388       .  A
C508        H512   1.083       .  S
C513        S519   1.699       .  A
C513        C518   1.388       .  A
C513        C514   1.400       .  A
C514        C515   1.399       .  A
C514        H525   1.083       .  S
C515        C524   1.371       .  A
C515        C516   1.388       .  A
C516        S522   1.697       .  A
C516        C517   1.399       .  A
C517        C518   1.398       .  A
C517        H526   1.083       .  S
C518        C521   1.369       .  A
S519        C520   1.724       .  A
C520        C521   1.383       .  A
C521        H527   1.083       .  S
S522        C523   1.724       .  A
C523        C524   1.384       .  A
C524        H528   1.083       .  S
C529        S535   1.711   1_545  A
C529        C534   1.387       .  A
C529        C530   1.398       .  A
C530        C531   1.402       .  A
C530        H541   1.083   1_545  S
C531        C540   1.365       .  A
C531        C532   1.386       .  A
C532        S538   1.717       .  A
C532        C533   1.404       .  A
C533        C534   1.407       .  A
C533        H542   1.083       .  S
C534        C537   1.369       .  A
S535        C536   1.719   1_565  A
C536        C537   1.390       .  A
C537        H543   1.083       .  S
S538        C539   1.725       .  A
C539        C540   1.385       .  A
C540        H544   1.083       .  S
C545        S551   1.714       .  A
C545        C550   1.386       .  A
C545        C546   1.401       .  A
C546        C547   1.404       .  A
C546        H557   1.083       .  S
C547        C556   1.366       .  A
C547        C548   1.386       .  A
C548        S554   1.717   1_545  A
C548        C549   1.404       .  A
C549        C550   1.407       .  A
C549        H558   1.083   1_545  S
C550        C553   1.369       .  A
S551        C552   1.722       .  A
C552        C553   1.392       .  A
C553        H559   1.083       .  S
S554        C555   1.724   1_565  A
C555        C556   1.387       .  A
C556        H560   1.083       .  S
C561        S567   1.717   1_455  A
C561        C566   1.386       .  A
C561        C562   1.406       .  A
C562        C563   1.408       .  A
C562        H573   1.083       .  S
C563        C572   1.374       .  A
C563        C564   1.387       .  A
C564        S570   1.703       .  A
C564        C565   1.396       .  A
C565        C566   1.398       .  A
C565        H574   1.083       .  S
C566        C569   1.363       .  A
S567        C568   1.726       .  A
C568        C569   1.385   1_655  A
C569        H575   1.083       .  S
S570        C571   1.721       .  A
C571        C572   1.391       .  A
C572        H576   1.083       .  S
C577        S583   1.710       .  A
C577        C582   1.386       .  A
C577        C578   1.400       .  A
C578        C579   1.403       .  A
C578        H589   1.083       .  S
C579        C588   1.365       .  A
C579        C580   1.387       .  A
C580        S586   1.704       .  A
C580        C581   1.395       .  A
C581        C582   1.398       .  A
C581        H590   1.083       .  S
C582        C585   1.360       .  A
S583        C584   1.723       .  A
C584        C585   1.385       .  A
C585        H591   1.083       .  S
S586        C587   1.719       .  A
C587        C588   1.387       .  A
C588        H592   1.083       .  S
C593        S599   1.704       .  A
C593        C598   1.387       .  A
C593        C594   1.405       .  A
C594        C595   1.403       .  A
C594        H605   1.083       .  S
C595        C604   1.379       .  A
C595        C596   1.387       .  A
C596        S602   1.705       .  A
C596        C597   1.406       .  A
C597        C598   1.404       .  A
C597        H606   1.083       .  S
C598        C601   1.379       .  A
S599        C600   1.726       .  A
C600        C601   1.388       .  A
C601        H607   1.083       .  S
S602        C603   1.726       .  A
C603        C604   1.386       .  A
C604        H608   1.083       .  S
C609        S615   1.701       .  A
C609        C614   1.387       .  A
C609        C610   1.398   1_655  A
C610        C611   1.399       .  A
C610        H621   1.083       .  S
C611        C620   1.368       .  A
C611        C612   1.386       .  A
C612        S618   1.712       .  A
C612        C613   1.406   1_455  A
C613        C614   1.406       .  A
C613        H622   1.083       .  S
C614        C617   1.376       .  A
S615        C616   1.722       .  A
C616        C617   1.388       .  A
C617        H623   1.083       .  S
S618        C619   1.726       .  A
C619        C620   1.385       .  A
C620        H624   1.083       .  S
C625        S631   1.696       .  A
C625        C630   1.388       .  A
C625        C626   1.399       .  A
C626        C627   1.397       .  A
C626        H637   1.083       .  S
C627        C636   1.370       .  A
C627        C628   1.387       .  A
C628        S634   1.705       .  A
C628        C629   1.405       .  A
C629        C630   1.403       .  A
C629        H638   1.083       .  S
C630        C633   1.377       .  A
S631        C632   1.722       .  A
C632        C633   1.386       .  A
C633        H639   1.083       .  S
S634        C635   1.726       .  A
C635        C636   1.383       .  A
C636        H640   1.083       .  S
C641        S647   1.716       .  A
C641        C646   1.386       .  A
C641        C642   1.403       .  A
C642        C643   1.406       .  A
C642        H653   1.083       .  S
C643        C652   1.368       .  A
C643        C644   1.386       .  A
C644        S650   1.717       .  A
C644        C645   1.403       .  A
C645        C646   1.406       .  A
C645        H654   1.083       .  S
C646        C649   1.369       .  A
S647        C648   1.722       .  A
C648        C649   1.390       .  A
C649        H655   1.083       .  S
S650        C651   1.722       .  A
C651        C652   1.390       .  A
C652        H656   1.083       .  S
C657        S663   1.711       .  A
C657        C662   1.386       .  A
C657        C658   1.406       .  A
C658        C659   1.406       .  A
C658        H669   1.083       .  S
C659        C668   1.376       .  A
C659        C660   1.387       .  A
C660        S666   1.703       .  A
C660        C661   1.400       .  A
C661        C662   1.400       .  A
C661        H670   1.083       .  S
C662        C665   1.370       .  A
S663        C664   1.726       .  A
C664        C665   1.386       .  A
C665        H671   1.083       .  S
S666        C667   1.723       .  A
C667        C668   1.388       .  A
C668        H672   1.083       .  S
C673        S679   1.719   1_655  A
C673        C678   1.386       .  A
C673        C674   1.408       .  A
C674        C675   1.410       .  A
C674        H685   1.083       .  S
C675        C684   1.377       .  A
C675        C676   1.387       .  A
C676        S682   1.704       .  A
C676        C677   1.397       .  A
C677        C678   1.399       .  A
C677        H686   1.083       .  S
C678        C681   1.365       .  A
S679        C680   1.726       .  A
C680        C681   1.384   1_455  A
C681        H687   1.083       .  S
S682        C683   1.721       .  A
C683        C684   1.393       .  A
C684        H688   1.083       .  S
C689        S695   1.699       .  A
C689        C694   1.388       .  A
C689        C690   1.399       .  A
C690        C691   1.398       .  A
C690        H701   1.083       .  S
C691        C700   1.369       .  A
C691        C692   1.387       .  A
C692        S698   1.706       .  A
C692        C693   1.405       .  A
C693        C694   1.404       .  A
C693        H702   1.083       .  S
C694        C697   1.376       .  A
S695        C696   1.722       .  A
C696        C697   1.387       .  A
C697        H703   1.083       .  S
S698        C699   1.726       .  A
C699        C700   1.384       .  A
C700        H704   1.083       .  S
C705        S711   1.714       .  A
C705        C710   1.386       .  A
C705        C706   1.402       .  A
C706        C707   1.405       .  A
C706        H717   1.083       .  S
C707        C716   1.368       .  A
C707        C708   1.387       .  A
C708        S714   1.714       .  A
C708        C709   1.401       .  A
C709        C710   1.404       .  A
C709        H718   1.083       .  S
C710        C713   1.368       .  A
S711        C712   1.723   1_556  A
C712        C713   1.389   1_554  A
C713        H719   1.083   1_556  S
S714        C715   1.721       .  A
C715        C716   1.388       .  A
C716        H720   1.083       .  S
C721        S727   1.711       .  A
C721        C726   1.387       .  A
C721        C722   1.400       .  A
C722        C723   1.403       .  A
C722        H733   1.083       .  S
C723        C732   1.365       .  A
C723        C724   1.387       .  A
C724        S730   1.711       .  A
C724        C725   1.400       .  A
C725        C726   1.403       .  A
C725        H734   1.083       .  S
C726        C729   1.366       .  A
S727        C728   1.721       .  A
C728        C729   1.387       .  A
C729        H735   1.083       .  S
S730        C731   1.721       .  A
C731        C732   1.386       .  A
C732        H736   1.083       .  S
C737        S743   1.706       .  A
C737        C742   1.387       .  A
C737        C738   1.400   1_655  A
C738        C739   1.401       .  A
C738        H749   1.083       .  S
C739        C748   1.369       .  A
C739        C740   1.386       .  A
C740        S746   1.716       .  A
C740        C741   1.407   1_455  A
C741        C742   1.408       .  A
C741        H750   1.083       .  S
C742        C745   1.376       .  A
S743        C744   1.723       .  A
C744        C745   1.390       .  A
C745        H751   1.083       .  S
S746        C747   1.727       .  A
C747        C748   1.387       .  A
C748        H752   1.083       .  S
C753        S759   1.698       .  A
C753        C758   1.387       .  A
C753        C754   1.400       .  A
C754        C755   1.399   1_556  A
C754        H765   1.083       .  S
C755        C764   1.373       .  A
C755        C756   1.387       .  A
C756        S762   1.703       .  A
C756        C757   1.405       .  A
C757        C758   1.403   1_554  A
C757        H766   1.083       .  S
C758        C761   1.377       .  A
S759        C760   1.724       .  A
C760        C761   1.388       .  A
C761        H767   1.083       .  S
S762        C763   1.727       .  A
C763        C764   1.384       .  A
C764        H768   1.083       .  S
C769        S775   1.710       .  A
C769        C774   1.387       .  A
C769        C770   1.399       .  A
C770        C771   1.402       .  A
C770        H781   1.083       .  S
C771        C780   1.365       .  A
C771        C772   1.387       .  A
C772        S778   1.713       .  A
C772        C773   1.401       .  A
C773        C774   1.404       .  A
C773        H782   1.083       .  S
C774        C777   1.367   1_554  A
S775        C776   1.719   1_554  A
C776        C777   1.388       .  A
C777        H783   1.083       .  S
S778        C779   1.722       .  A
C779        C780   1.387       .  A
C780        H784   1.083       .  S
C785        S791   1.707       .  A
C785        C790   1.387       .  A
C785        C786   1.399       .  A
C786        C787   1.401       .  A
C786        H797   1.083       .  S
C787        C796   1.366       .  A
C787        C788   1.387       .  A
C788        S794   1.713   1_455  A
C788        C789   1.403       .  A
C789        C790   1.405       .  A
C789        H798   1.083       .  S
C790        C793   1.370       .  A
S791        C792   1.723       .  A
C792        C793   1.389       .  A
C793        H799   1.083       .  S
S794        C795   1.722       .  A
C795        C796   1.385   1_655  A
C796        H800   1.083       .  S
C801        S807   1.695       .  A
C801        C806   1.388       .  A
C801        C802   1.396       .  A
C802        C803   1.396       .  A
C802        H813   1.083       .  S
C803        C812   1.368       .  A
C803        C804   1.387       .  A
C804        S810   1.709       .  A
C804        C805   1.407       .  A
C805        C806   1.406       .  A
C805        H814   1.083       .  S
C806        C809   1.379       .  A
S807        C808   1.721       .  A
C808        C809   1.389       .  A
C809        H815   1.083       .  S
S810        C811   1.727       .  A
C811        C812   1.382       .  A
C812        H816   1.083       .  S
C817        S823   1.710       .  A
C817        C822   1.386       .  A
C817        C818   1.401   1_556  A
C818        C819   1.403       .  A
C818        H829   1.083       .  S
C819        C828   1.368       .  A
C819        C820   1.386   1_554  A
C820        S826   1.712   1_556  A
C820        C821   1.402       .  A
C821        C822   1.404       .  A
C821        H830   1.083       .  S
C822        C825   1.369       .  A
S823        C824   1.723       .  A
C824        C825   1.389       .  A
C825        H831   1.083       .  S
S826        C827   1.724       .  A
C827        C828   1.389       .  A
C828        H832   1.083       .  S
C833        S839   1.706   1_554  A
C833        C838   1.388       .  A
C833        C834   1.407       .  A
C834        C835   1.405       .  A
C834        H845   1.083   1_565  S
C835        C844   1.381       .  A
C835        C836   1.388       .  A
C836        S842   1.688       .  A
C836        C837   1.395       .  A
C837        C838   1.393       .  A
C837        H846   1.083       .  S
C838        C841   1.368       .  A
S839        C840   1.725       .  A
C840        C841   1.378   1_556  A
C841        H847   1.083       .  S
S842        C843   1.724       .  A
C843        C844   1.389       .  A
C844        H848   1.083   1_565  S
C849        S855   1.703       .  A
C849        C854   1.387       .  A
C849        C850   1.401       .  A
C850        C851   1.401       .  A
C850        H861   1.083       .  S
C851        C860   1.371       .  A
C851        C852   1.386       .  A
C852        S858   1.711       .  A
C852        C853   1.406       .  A
C853        C854   1.405       .  A
C853        H862   1.083       .  S
C854        C857   1.377       .  A
S855        C856   1.724       .  A
C856        C857   1.388       .  A
C857        H863   1.083       .  S
S858        C859   1.726       .  A
C859        C860   1.387       .  A
C860        H864   1.083       .  S
C865        S871   1.699       .  A
C865        C870   1.387       .  A
C865        C866   1.394   1_565  A
C866        C867   1.395       .  A
C866        H877   1.083       .  S
C867        C876   1.362       .  A
C867        C868   1.387   1_545  A
C868        S874   1.715   1_665  A
C868        C869   1.406       .  A
C869        C870   1.408       .  A
C869        H878   1.083       .  S
C870        C873   1.374       .  A
S871        C872   1.719       .  A
C872        C873   1.391       .  A
C873        H879   1.083       .  S
S874        C875   1.725       .  A
C875        C876   1.380   1_455  A
C876        H880   1.083       .  S
C881        S887   1.697       .  A
C881        C886   1.389       .  A
C881        C882   1.396       .  A
C882        C883   1.396       .  A
C882        H893   1.083       .  S
C883        C892   1.365       .  A
C883        C884   1.388       .  A
C884        S890   1.703       .  A
C884        C885   1.400       .  A
C885        C886   1.400       .  A
C885        H894   1.083       .  S
C886        C889   1.370       .  A
S887        C888   1.720       .  A
C888        C889   1.382       .  A
C889        H895   1.083       .  S
S890        C891   1.723       .  A
C891        C892   1.383       .  A
C892        H896   1.084       .  S
C897        S903   1.710       .  A
C897        C902   1.386       .  A
C897        C898   1.400       .  A
C898        C899   1.403       .  A
C898        H909   1.083       .  S
C899        C908   1.365       .  A
C899        C900   1.387       .  A
C900        S906   1.705       .  A
C900        C901   1.397       .  A
C901        C902   1.400       .  A
C901        H910   1.083       .  S
C902        C905   1.362       .  A
S903        C904   1.723       .  A
C904        C905   1.386       .  A
C905        H911   1.083       .  S
S906        C907   1.721       .  A
C907        C908   1.386       .  A
C908        H912   1.083       .  S
C913        S919   1.717       .  A
C913        C918   1.386       .  A
C913        C914   1.406       .  A
C914        C915   1.409       .  A
C914        H925   1.083       .  S
C915        C924   1.373       .  A
C915        C916   1.386       .  A
C916        S922   1.713       .  A
C916        C917   1.401       .  A
C917        C918   1.403       .  A
C917        H926   1.083       .  S
C918        C921   1.368       .  A
S919        C920   1.725       .  A
C920        C921   1.387       .  A
C921        H927   1.083       .  S
S922        C923   1.720       .  A
C923        C924   1.393       .  A
C924        H928   1.083       .  S
C929        S935   1.711       .  A
C929        C934   1.386       .  A
C929        C930   1.398       .  A
C930        C931   1.402       .  A
C930        H941   1.083       .  S
C931        C940   1.364       .  A
C931        C932   1.386   1_545  A
C932        S938   1.718       .  A
C932        C933   1.404       .  A
C933        C934   1.407   1_565  A
C933        H942   1.083       .  S
C934        C937   1.369       .  A
S935        C936   1.720       .  A
C936        C937   1.390       .  A
C937        H943   1.083   1_545  S
S938        C939   1.723       .  A
C939        C940   1.385   1_565  A
C940        H944   1.083       .  S
C945        S951   1.705       .  A
C945        C950   1.387       .  A
C945        C946   1.398       .  A
C946        C947   1.400       .  A
C946        H957   1.083       .  S
C947        C956   1.363       .  A
C947        C948   1.387       .  A
C948        S954   1.704       .  A
C948        C949   1.397       .  A
C949        C950   1.399       .  A
C949        H958   1.083       .  S
C950        C953   1.364       .  A
S951        C952   1.722       .  A
C952        C953   1.384       .  A
C953        H959   1.083       .  S
S954        C955   1.720       .  A
C955        C956   1.384       .  A
C956        H960   1.083       .  S
C961        S967   1.714       .  A
C961        C966   1.386       .  A
C961        C962   1.402       .  A
C962        C963   1.405       .  A
C962        H973   1.083       .  S
C963        C972   1.371       .  A
C963        C964   1.386       .  A
C964        S970   1.717       .  A
C964        C965   1.405       .  A
C965        C966   1.408       .  A
C965        H974   1.083       .  S
C966        C969   1.373       .  A
S967        C968   1.721       .  A
C968        C969   1.391       .  A
C969        H975   1.083       .  S
S970        C971   1.725       .  A
C971        C972   1.389       .  A
C972        H976   1.083       .  S
C977        S983   1.712       .  A
C977        C982   1.386       .  A
C977        C978   1.401       .  A
C978        C979   1.403       .  A
C978        H989   1.083       .  S
C979        C988   1.367       .  A
C979        C980   1.387       .  A
C980        S986   1.713       .  A
C980        C981   1.402       .  A
C981        C982   1.405       .  A
C981        H990   1.083       .  S
C982        C985   1.368       .  A
S983        C984   1.721       .  A
C984        C985   1.390       .  A
C985        H991   1.083       .  S
S986        C987   1.721       .  A
C987        C988   1.386       .  A
C988        H992   1.083       .  S
C993        S999   1.704       .  A
C993        C998   1.387       .  A
C993        C994   1.401       .  A
C994        C995   1.401       .  A
C994       H1005   1.083       .  S
C995       C1004   1.371       .  A
C995        C996   1.387       .  A
C996       S1002   1.711       .  A
C996        C997   1.406       .  A
C997        C998   1.406       .  A
C997       H1006   1.083       .  S
C998       C1001   1.377       .  A
S999       C1000   1.724       .  A
C1000      C1001   1.390       .  A
C1001      H1007   1.083       .  S
S1002      C1003   1.726       .  A
C1003      C1004   1.386       .  A
C1004      H1008   1.083       .  S
C1009      S1015   1.710       .  A
C1009      C1014   1.386       .  A
C1009      C1010   1.401       .  A
C1010      C1011   1.404   1_655  A
C1010      H1021   1.083       .  S
C1011      C1020   1.367       .  A
C1011      C1012   1.387       .  A
C1012      S1018   1.708       .  A
C1012      C1013   1.399       .  A
C1013      C1014   1.401   1_455  A
C1013      H1022   1.083       .  S
C1014      C1017   1.365       .  A
S1015      C1016   1.724       .  A
C1016      C1017   1.386       .  A
C1017      H1023   1.083       .  S
S1018      C1019   1.722       .  A
C1019      C1020   1.388       .  A
C1020      H1024   1.083       .  S
C1025      S1031   1.715       .  A
C1025      C1030   1.386       .  A
C1025      C1026   1.403       .  A
C1026      C1027   1.407       .  A
C1026      H1037   1.083       .  S
C1027      C1036   1.370       .  A
C1027      C1028   1.386       .  A
C1028      S1034   1.716       .  A
C1028      C1029   1.402       .  A
C1029      C1030   1.404       .  A
C1029      H1038   1.083       .  S
C1030      C1033   1.369       .  A
S1031      C1032   1.724       .  A
C1032      C1033   1.387       .  A
C1033      H1039   1.083       .  S
S1034      C1035   1.720       .  A
C1035      C1036   1.390       .  A
C1036      H1040   1.083       .  S
C1041      S1047   1.713       .  A
C1041      C1046   1.387       .  A
C1041      C1042   1.400       .  A
C1042      C1043   1.404       .  A
C1042      H1053   1.083       .  S
C1043      C1052   1.367       .  A
C1043      C1044   1.385       .  A
C1044      S1050   1.719       .  A
C1044      C1045   1.405       .  A
C1045      C1046   1.408       .  A
C1045      H1054   1.083       .  S
C1046      C1049   1.371       .  A
S1047      C1048   1.719       .  A
C1048      C1049   1.389       .  A
C1049      H1055   1.083       .  S
S1050      C1051   1.725       .  A
C1051      C1052   1.391       .  A
C1052      H1056   1.083       .  S
C1057      S1063   1.704       .  A
C1057      C1062   1.387       .  A
C1057      C1058   1.397       .  A
C1058      C1059   1.399       .  A
C1058      H1069   1.083       .  S
C1059      C1068   1.363       .  A
C1059      C1060   1.387       .  A
C1060      S1066   1.715       .  A
C1060      C1061   1.404       .  A
C1061      C1062   1.406       .  A
C1061      H1070   1.083       .  S
C1062      C1065   1.372       .  A
S1063      C1064   1.722       .  A
C1064      C1065   1.390       .  A
C1065      H1071   1.083       .  S
S1066      C1067   1.722       .  A
C1067      C1068   1.384       .  A
C1068      H1072   1.084       .  S
C1073      S1079   1.706       .  A
C1073      C1078   1.387       .  A
C1073      C1074   1.404       .  A
C1074      C1075   1.403       .  A
C1074      H1085   1.083       .  S
C1075      C1084   1.377       .  A
C1075      C1076   1.388       .  A
C1076      S1082   1.700       .  A
C1076      C1077   1.401       .  A
C1077      C1078   1.400       .  A
C1077      H1086   1.083       .  S
C1078      C1081   1.371       .  A
S1079      C1080   1.725       .  A
C1080      C1081   1.386       .  A
C1081      H1087   1.083       .  S
S1082      C1083   1.723       .  A
C1083      C1084   1.386       .  A
C1084      H1088   1.083       .  S
C1089      S1095   1.713       .  A
C1089      C1094   1.386       .  A
C1089      C1090   1.404       .  A
C1090      C1091   1.406   1_655  A
C1090      H1101   1.083       .  S
C1091      C1100   1.372       .  A
C1091      C1092   1.386       .  A
C1092      S1098   1.710       .  A
C1092      C1093   1.401       .  A
C1093      C1094   1.403   1_455  A
C1093      H1102   1.083       .  S
C1094      C1097   1.369       .  A
S1095      C1096   1.725       .  A
C1096      C1097   1.388       .  A
C1097      H1103   1.083       .  S
S1098      C1099   1.723       .  A
C1099      C1100   1.391       .  A
C1100      H1104   1.083       .  S
C1105      S1111   1.711       .  A
C1105      C1110   1.387       .  A
C1105      C1106   1.399       .  A
C1106      C1107   1.402       .  A
C1106      H1117   1.083       .  S
C1107      C1116   1.365       .  A
C1107      C1108   1.386   1_545  A
C1108      S1114   1.716       .  A
C1108      C1109   1.403       .  A
C1109      C1110   1.406   1_565  A
C1109      H1118   1.083       .  S
C1110      C1113   1.370       .  A
S1111      C1112   1.721       .  A
C1112      C1113   1.389       .  A
C1113      H1119   1.083   1_545  S
S1114      C1115   1.723       .  A
C1115      C1116   1.386   1_565  A
C1116      H1120   1.083       .  S
C1121      S1127   1.709       .  A
C1121      C1126   1.387       .  A
C1121      C1122   1.396       .  A
C1122      C1123   1.400       .  A
C1122      H1133   1.083       .  S
C1123      C1132   1.360       .  A
C1123      C1124   1.387       .  A
C1124      S1130   1.714       .  A
C1124      C1125   1.400       .  A
C1125      C1126   1.404       .  A
C1125      H1134   1.083       .  S
C1126      C1129   1.364       .  A
S1127      C1128   1.717       .  A
C1128      C1129   1.388       .  A
C1129      H1135   1.083       .  S
S1130      C1131   1.721       .  A
C1131      C1132   1.385       .  A
C1132      H1136   1.084       .  S
C1137      S1143   1.710       .  A
C1137      C1142   1.387       .  A
C1137      C1138   1.406   1_655  A
C1138      C1139   1.406       .  A
C1138      H1149   1.083       .  S
C1139      C1148   1.378       .  A
C1139      C1140   1.387       .  A
C1140      S1146   1.699       .  A
C1140      C1141   1.399       .  A
C1141      C1142   1.398   1_455  A
C1141      H1150   1.083   1_455  S
C1142      C1145   1.369       .  A
S1143      C1144   1.725       .  A
C1144      C1145   1.384       .  A
C1145      H1151   1.083       .  S
S1146      C1147   1.724       .  A
C1147      C1148   1.389       .  A
C1148      H1152   1.083       .  S
C1153      S1159   1.698       .  A
C1153      C1158   1.388       .  A
C1153      C1154   1.400       .  A
C1154      C1155   1.399   1_545  A
C1154      H1165   1.083       .  S
C1155      C1164   1.372       .  A
C1155      C1156   1.387       .  A
C1156      S1162   1.708       .  A
C1156      C1157   1.407       .  A
C1157      C1158   1.406   1_565  A
C1157      H1166   1.083       .  S
C1158      C1161   1.380       .  A
S1159      C1160   1.723       .  A
C1160      C1161   1.388       .  A
C1161      H1167   1.083       .  S
S1162      C1163   1.728       .  A
C1163      C1164   1.386       .  A
C1164      H1168   1.083       .  S
C1169      S1175   1.703       .  A
C1169      C1174   1.388       .  A
C1169      C1170   1.401       .  A
C1170      C1171   1.401       .  A
C1170      H1181   1.083       .  S
C1171      C1180   1.372       .  A
C1171      C1172   1.388       .  A
C1172      S1178   1.697       .  A
C1172      C1173   1.397       .  A
C1173      C1174   1.397       .  A
C1173      H1182   1.083       .  S
C1174      C1177   1.366       .  A
S1175      C1176   1.723       .  A
C1176      C1177   1.383       .  A
C1177      H1183   1.084       .  S
S1178      C1179   1.722       .  A
C1179      C1180   1.383       .  A
C1180      H1184   1.083       .  S
