geometry optimzed in LAMMPS
_audit_creation_date              2020-12-01 
_audit_creation_method            'lammps2cif' 
_symmetry_space_group_name_H-M    'P1' 
_symmetry_Int_Tables_number       1 
_symmetry_cell_setting            triclinic 
loop_ 
_symmetry_equiv_pos_as_xyz 
  x,y,z 
_cell_length_a                    50.49438396 
_cell_length_b                    50.34474813573132 
_cell_length_c                    29.559796780160088 
_cell_angle_alpha                 90.11264635519275 
_cell_angle_beta                  90.1292358542171 
_cell_angle_gamma                 89.81362673828616 
loop_ 
_atom_site_label 
_atom_site_type_symbol 
_atom_site_fract_x 
_atom_site_fract_y 
_atom_site_fract_z 
_atom_site_charge 
Fe1        Fe  0.54736779  0.72691354  0.97012142     1.65800
Fe2        Fe  0.56986961  0.66946894  0.92699638     1.73200
Fe3        Fe  0.60861938  0.70326102  0.99931918     1.54400
O4          O  0.61414668  0.74170645  0.97928574    -0.82100
O5          O  0.59340765  0.64344573  0.96388654    -0.80400
O6          O  0.57345301  0.75904434  0.97588200    -0.84600
O7          O  0.54721774  0.72436992  0.03922146    -0.79400
O8          O  0.63095402  0.69092736  0.94324158    -0.81200
O9          O  0.53789840  0.65860544  0.96486552    -0.83900
C10         C  0.56554729  0.72196633  0.06845168     0.96800
C11         C  0.59847203  0.76134813  0.97970119     1.04300
O12         O  0.57543840  0.70013271  0.96579068    -1.12900
O13         O  0.54502270  0.68906356  0.88229596    -0.75400
O14         O  0.54507145  0.73179063  0.90031321    -0.78800
O15         O  0.58932900  0.71573667  0.05820865    -0.79500
C16         C  0.53933231  0.71301879  0.87326145     0.95700
O17         O  0.51735058  0.69791776  0.96852869    -0.77500
O18         O  0.60186202  0.68016790  0.88874690    -0.82700
C19         C  0.60499165  0.64385750  0.00195631     0.98300
C20         C  0.62528081  0.68502035  0.90227597     1.04300
O21         O  0.60748413  0.66514916  0.02429140    -0.78300
C22         C  0.51740081  0.67261634  0.97247766     1.02600
Fe23       Fe  0.75536435  0.52149637  0.58149356     1.65800
Fe24       Fe  0.69681100  0.54046412  0.62391184     1.73200
Fe25       Fe  0.72918224  0.58197020  0.55488139     1.54400
O26         O  0.76695121  0.58841508  0.57641867    -0.82100
O27         O  0.67001612  0.56329275  0.58796985    -0.80400
O28         O  0.78663494  0.54896383  0.57390449    -0.84600
O29         O  0.75200307  0.52118837  0.51246416    -0.79400
O30         O  0.71639468  0.60308180  0.61222051    -0.81200
O31         O  0.68773725  0.50865361  0.58393344    -0.83900
C32         C  0.74844096  0.53971579  0.48388900     0.96800
C33         C  0.78730694  0.57420125  0.57061783     1.04300
O34         O  0.72723900  0.54816996  0.58627772    -1.12900
O35         O  0.71761693  0.51604719  0.66769499    -0.75400
O36         O  0.76030310  0.52013794  0.65148182    -0.78800
O37         O  0.74188992  0.56340549  0.49508565    -0.79500
C38         C  0.74182868  0.51278802  0.67781205     0.95700
O39         O  0.72784109  0.48985748  0.58365705    -0.77500
O40         O  0.70571487  0.57236612  0.66392018    -0.82700
C41         C  0.67036229  0.57622703  0.55134166     0.98300
C42         C  0.71056865  0.59623820  0.65264303     1.04300
O43         O  0.69145683  0.58022197  0.52961555    -0.78300
C44         C  0.70274239  0.48873742  0.57755995     1.02600
Fe45       Fe  0.54903565  0.23689499  0.47015229     1.65800
Fe46       Fe  0.57046317  0.29335432  0.42298875     1.73200
Fe47       Fe  0.60968838  0.26196576  0.49699529     1.54400
O48         O  0.59058445  0.25033326  0.55701731    -0.82100
O49         O  0.60202006  0.28184093  0.38466527    -0.80400
O50         O  0.54837690  0.24195855  0.53854602    -0.84600
O51         O  0.57582834  0.20496000  0.47996446    -0.79400
O52         O  0.60730656  0.30038516  0.51981370    -0.81200
O53         O  0.54536932  0.27212069  0.38080964    -0.83900
C54         C  0.60099913  0.20337943  0.48371728     0.96800
C55         C  0.56671339  0.24462194  0.56759769     1.04300
O56         O  0.57659518  0.26377555  0.46363532    -1.12900
O57         O  0.53902956  0.30502736  0.46121245    -0.75400
O58         O  0.51850198  0.26586547  0.46563196    -0.78800
O59         O  0.61594359  0.22329150  0.47871773    -0.79500
C60         C  0.51859257  0.29125040  0.46937000     0.95700
O61         O  0.54737408  0.22977731  0.40098273    -0.77500
O62         O  0.59433564  0.32053447  0.45724434    -0.82700
C63         C  0.62573178  0.27885715  0.39825690     0.98300
C64         C  0.60557278  0.32099609  0.49566919     1.04300
O65         O  0.63165699  0.27393865  0.43963863    -0.78300
C66         C  0.54050143  0.24778386  0.37328870     1.02600
Fe67       Fe  0.75925811  0.44591544  0.08325230     1.65800
Fe68       Fe  0.70123412  0.42530424  0.12493812     1.73200
Fe69       Fe  0.73439299  0.38514443  0.05416740     1.54400
O70         O  0.74548908  0.40432929  0.99377113    -0.82100
O71         O  0.71241997  0.39438279  0.16548172    -0.80400
O72         O  0.75801273  0.44525250  0.01420638    -0.84600
O73         O  0.79121433  0.41897580  0.08254572    -0.79400
O74         O  0.69621071  0.38606697  0.03038564    -0.81200
O75         O  0.72014548  0.45190284  0.16746920    -0.83900
C76         C  0.79289059  0.39376988  0.07916491     0.96800
C77         C  0.75310130  0.42789174  0.98419994     1.04300
O78         O  0.73193233  0.41859205  0.08705826    -1.12900
O79         O  0.69051643  0.45621644  0.08398540    -0.75400
O80         O  0.73010582  0.47620972  0.08159753    -0.78800
O81         O  0.77290804  0.37911189  0.07299782    -0.79500
C82         C  0.70483187  0.47653481  0.07696748     0.95700
O83         O  0.76297291  0.44927791  0.15291943    -0.77500
O84         O  0.67529803  0.40014608  0.09124427    -0.82700
C85         C  0.71695129  0.37052500  0.15331125     0.98300
C86         C  0.67550886  0.38766035  0.05405292     1.04300
O87         O  0.72274929  0.36390886  0.11251255    -0.78300
C88         C  0.74396856  0.45694223  0.17766845     1.02600
Fe89       Fe  0.47768995  0.23293406  0.97236736     1.65800
Fe90       Fe  0.45973757  0.29138145  0.92761516     1.73200
Fe91       Fe  0.41715506  0.25983979  0.99475117     1.54400
O92         O  0.41105843  0.22212329  0.97159513    -0.82100
O93         O  0.43551931  0.31853234  0.96109724    -0.80400
O94         O  0.44985571  0.20189309  0.97980147    -0.84600
O95         O  0.47681953  0.23675357  0.04097025    -0.79400
O96         O  0.39746269  0.27389898  0.93632510    -0.81200
O97         O  0.49036206  0.30068909  0.96982318    -0.83900
C98         C  0.45762367  0.23953948  0.06825318     0.96800
C99         C  0.42460586  0.20171783  0.98108281     1.04300
O100        O  0.45135021  0.26123804  0.96540416    -1.12900
O101        O  0.48536236  0.27006622  0.88652544    -0.75400
O102        O  0.48041739  0.22735261  0.90282389    -0.78800
O103        O  0.43420077  0.24611205  0.05567814    -0.79500
C104        C  0.48878931  0.24569540  0.87707507     0.95700
O105        O  0.50928388  0.26051850  0.97114402    -0.77500
O106        O  0.42907957  0.28218653  0.88523267    -0.82700
C107        C  0.42247947  0.31870740  0.99772745     0.98300
C108        C  0.40487088  0.27960873  0.89605055     1.04300
O109        O  0.41932200  0.29774222  0.02060590    -0.78300
C110        C  0.51022724  0.28573461  0.97696141     1.02600
Fe111      Fe  0.26857362  0.44897065  0.57244611     1.65800
Fe112      Fe  0.32565083  0.42918441  0.62062509     1.73200
Fe113      Fe  0.29324476  0.38678989  0.55236588     1.54400
O114        O  0.25457703  0.38158856  0.57226693    -0.82100
O115        O  0.35243325  0.40467647  0.58751655    -0.80400
O116        O  0.23709397  0.42230778  0.56908428    -0.84600
O117        O  0.27216081  0.44622908  0.50341653    -0.79400
O118        O  0.30581752  0.36710394  0.61125352    -0.81200
O119        O  0.33649687  0.45979535  0.57935703    -0.83900
C120        C  0.27551256  0.42666303  0.47679272     0.96800
C121        C  0.23484488  0.39715831  0.57010210     1.04300
O122        O  0.29558223  0.42146052  0.58159925    -1.12900
O123        O  0.30493686  0.45541341  0.66138215    -0.75400
O124        O  0.26258044  0.45419555  0.64156894    -0.78800
O125        O  0.28147822  0.40334460  0.49047811    -0.79500
C126        C  0.28085286  0.46118288  0.66865951     0.95700
O127        O  0.29693665  0.47937103  0.57211858    -0.77500
O128        O  0.31545873  0.39849832  0.66259699    -0.82700
C129        C  0.35243828  0.39133149  0.55113820     0.98300
C130        C  0.31205493  0.37435296  0.65137533     1.04300
O131        O  0.33147155  0.38750307  0.52861069    -0.78300
C132        C  0.32219748  0.47979704  0.56982663     1.02600
Fe133      Fe  0.47530042  0.73005278  0.47016115     1.65800
Fe134      Fe  0.45375114  0.67399470  0.42091669     1.73200
Fe135      Fe  0.41417824  0.70577005  0.49302850     1.54400
O136        O  0.43215169  0.71835922  0.55386651    -0.82100
O137        O  0.42253787  0.68559528  0.38114529    -0.80400
O138        O  0.47503912  0.72479314  0.53856552    -0.84600
O139        O  0.44880479  0.76181694  0.47899411    -0.79400
O140        O  0.41674206  0.66792841  0.51761664    -0.81200
O141        O  0.47943206  0.69504607  0.37994801    -0.83900
C142        C  0.42363406  0.76334289  0.47933959     0.96800
C143        C  0.45601507  0.72283100  0.56626230     1.04300
O144        O  0.44764933  0.70346538  0.46168316    -1.12900
O145        O  0.48454862  0.66213097  0.46030507    -0.75400
O146        O  0.50532527  0.70104580  0.46674278    -0.78800
O147        O  0.40894182  0.74368378  0.47070579    -0.79500
C148        C  0.50484441  0.67572436  0.47025800     0.95700
O149        O  0.47777991  0.73730407  0.40143363    -0.77500
O150        O  0.42964579  0.64732702  0.45521035    -0.82700
C151        C  0.39874545  0.68784289  0.39451187     0.98300
C152        C  0.41899138  0.64707541  0.49406825     1.04300
O153        O  0.39277472  0.69258904  0.43583083    -0.78300
C154        C  0.48464290  0.71938887  0.37357247     1.02600
Fe155      Fe  0.26626505  0.51762810  0.07280661     1.65800
Fe156      Fe  0.32480182  0.53707303  0.11578743     1.73200
Fe157      Fe  0.29010663  0.58001378  0.05145166     1.54400
O158        O  0.27724852  0.56343100  0.99022233    -0.82100
O159        O  0.31581400  0.56788330  0.15886772    -0.80400
O160        O  0.26752900  0.52074464  0.00355840    -0.84600
O161        O  0.23435108  0.54446334  0.07364213    -0.79400
O162        O  0.32772371  0.58029131  0.02492400    -0.81200
O163        O  0.30558149  0.51100829  0.15835021    -0.83900
C164        C  0.23223488  0.56967882  0.07523812     0.96800
C165        C  0.27073570  0.54020275  0.97680637     1.04300
O166        O  0.29353950  0.54506285  0.07969703    -1.12900
O167        O  0.33455138  0.50618539  0.07353298    -0.75400
O168        O  0.29481782  0.48693726  0.06904733    -0.78800
O169        O  0.25210069  0.58492748  0.07423424    -0.79500
C170        C  0.32005306  0.48619682  0.06515780     0.95700
O171        O  0.26268531  0.51202911  0.14233184    -0.77500
O172        O  0.35028093  0.56132388  0.08043290    -0.82700
C173        C  0.31059812  0.59200330  0.14938700     0.98300
C174        C  0.34928185  0.57547113  0.04512971     1.04300
O175        O  0.30331295  0.59960229  0.11001593    -0.78300
C176        C  0.28182931  0.50517877  0.16777992     1.02600
Fe177      Fe  0.05284242  0.22908228  0.47624557     1.65800
Fe178      Fe  0.07461631  0.16950346  0.43306307     1.73200
Fe179      Fe  0.11264216  0.20337552  0.50833982     1.54400
O180        O  0.11419945  0.24372719  0.50552122    -0.82100
O181        O  0.08716666  0.14174727  0.48000686    -0.80400
O182        O  0.07971153  0.26046954  0.46845987    -0.84600
O183        O  0.05668049  0.23162932  0.54562800    -0.79400
O184        O  0.13629881  0.20016077  0.45052082    -0.81200
O185        O  0.03637115  0.16344394  0.45485887    -0.83900
C186        C  0.07033465  0.22056552  0.57652908     0.96800
C187        C  0.10150296  0.26323725  0.48964651     1.04300
O188        O  0.08001330  0.20073117  0.47216115    -1.12900
O189        O  0.06118716  0.19188057  0.38003135    -0.75400
O190        O  0.04453637  0.22966803  0.40729408    -0.78800
O191        O  0.09083871  0.20650971  0.56794968    -0.79500
C192        C  0.04868099  0.21351228  0.37497191     0.95700
O193        O  0.02294306  0.20149047  0.48660586    -0.77500
O194        O  0.11234604  0.17257951  0.40702145    -0.82700
C195        C  0.10649879  0.14213797  0.50731662     0.98300
C196        C  0.13342720  0.18541045  0.41562568     1.04300
O197        O  0.11748688  0.16353817  0.51909403    -0.78300
C198        C  0.01921298  0.17734313  0.47554200     1.02600
Fe199      Fe  0.25782480  0.01885002  0.08771560     1.65800
Fe200      Fe  0.19903596  0.03806929  0.12987573     1.73200
Fe201      Fe  0.23229858  0.07986427  0.06235169     1.54400
O202        O  0.27038862  0.08599031  0.08322674    -0.82100
O203        O  0.17251997  0.06186629  0.09448379    -0.80400
O204        O  0.28936950  0.04606559  0.08638396    -0.84600
O205        O  0.25637686  0.02008722  0.01889297    -0.79400
O206        O  0.21968171  0.10050212  0.12107136    -0.81200
O207        O  0.18966261  0.00692342  0.08869194    -0.83900
C208        C  0.25261599  0.03858398  0.99050984     0.96800
C209        C  0.29076136  0.07133656  0.08545501     1.04300
O210        O  0.22994109  0.04577365  0.09292356    -1.12900
O211        O  0.21897789  0.01248100  0.17308172    -0.75400
O212        O  0.26173036  0.01565445  0.15715942    -0.78800
O213        O  0.24500739  0.06195229  0.00173509    -0.79500
C214        C  0.24308782  0.00845354  0.18293123     0.95700
O215        O  0.22964166  0.98781013  0.08544056    -0.77500
O216        O  0.20827036  0.06923552  0.17133099    -0.82700
C217        C  0.17310745  0.07450218  0.05750102     0.98300
C218        C  0.21357449  0.09320449  0.16128892     1.04300
O219        O  0.19454561  0.07831977  0.03663164    -0.78300
C220        C  0.20443609  0.98707798  0.08024236     1.02600
Fe221      Fe  0.04784659  0.73759093  0.97172621     1.65800
Fe222      Fe  0.06993814  0.79321149  0.92208072     1.73200
Fe223      Fe  0.10894025  0.76201263  0.99689156     1.54400
O224        O  0.08975727  0.75246100  0.05770506    -0.82100
O225        O  0.10125851  0.78060927  0.88389678    -0.80400
O226        O  0.04755743  0.74337663  0.04004071    -0.84600
O227        O  0.07393885  0.70532255  0.98213446    -0.79400
O228        O  0.10767327  0.80070148  0.01761118    -0.81200
O229        O  0.04417961  0.77185805  0.88096335    -0.83900
C230        C  0.09903040  0.70343604  0.98631654     0.96800
C231        C  0.06589159  0.74712143  0.06871694     1.04300
O232        O  0.07577000  0.76399423  0.96382208    -1.12900
O233        O  0.03878183  0.80590657  0.96015340    -0.75400
O234        O  0.01803952  0.76695572  0.96668821    -0.78800
O235        O  0.11432351  0.72299942  0.98100811    -0.79500
C236        C  0.01829968  0.79236778  0.96913155     0.95700
O237        O  0.04561436  0.72977082  0.90282498    -0.77500
O238        O  0.09433950  0.82057533  0.95499561    -0.82700
C239        C  0.12488425  0.77631366  0.89708400     0.98300
C240        C  0.10600465  0.82107940  0.99303270     1.04300
O241        O  0.13088566  0.77187626  0.93857318    -0.78300
C242        C  0.03871245  0.74752281  0.87466250     1.02600
Fe243      Fe  0.25848323  0.94530096  0.59022063     1.65800
Fe244      Fe  0.20235572  0.92158888  0.63509975     1.73200
Fe245      Fe  0.23553821  0.88395610  0.56044683     1.54400
O246        O  0.24667835  0.90389449  0.50124036    -0.82100
O247        O  0.21452630  0.88949528  0.67246163    -0.80400
O248        O  0.25537127  0.94577401  0.52139772    -0.84600
O249        O  0.29104007  0.91965220  0.58569423    -0.79400
O250        O  0.19732635  0.88484700  0.53686406    -0.81200
O251        O  0.22177679  0.94697301  0.67906979    -0.83900
C252        C  0.29351915  0.89451432  0.58365574     0.96800
C253        C  0.25221112  0.92795725  0.49150976     1.04300
O254        O  0.23235404  0.91683085  0.59489614    -1.12900
O255        O  0.19002376  0.95341140  0.59779655    -0.75400
O256        O  0.22871119  0.97465192  0.59199332    -0.78800
O257        O  0.27398164  0.87895289  0.58005555    -0.79500
C258        C  0.20342408  0.97407385  0.58896892     0.95700
O259        O  0.26405442  0.94743872  0.65952821    -0.77500
O260        O  0.17665765  0.89741094  0.59923752    -0.82700
C261        C  0.21861001  0.86605933  0.65777310     0.98300
C262        C  0.17673224  0.88608210  0.56095664     1.04300
O263        O  0.22404053  0.86093524  0.61638522    -0.78300
C264        C  0.24566890  0.95302122  0.68704336     1.02600
Fe265      Fe  0.97705339  0.73449996  0.47540228     1.65800
Fe266      Fe  0.96106870  0.79521116  0.43639093     1.73200
Fe267      Fe  0.91610195  0.76149526  0.49673113     1.54400
O268        O  0.90980862  0.72360349  0.47396335    -0.82100
O269        O  0.93738819  0.82187401  0.47120234    -0.80400
O270        O  0.94918834  0.70365492  0.47268689    -0.84600
O271        O  0.97348796  0.73465817  0.54433540    -0.79400
O272        O  0.89817470  0.77552602  0.43644643    -0.81200
O273        O  0.99098118  0.80201191  0.48135419    -0.83900
C274        C  0.95445032  0.73900684  0.57143598     0.96800
C275        C  0.92398673  0.70285146  0.47213815     1.04300
O276        O  0.95113144  0.76346505  0.46970653    -1.12900
O277        O  0.98685847  0.77541225  0.39411933    -0.75400
O278        O  0.98247995  0.73219232  0.40574952    -0.78800
O279        O  0.93177800  0.74768190  0.55856939    -0.79500
C280        C  0.99034144  0.75155159  0.38179959     0.95700
O281        O  0.00883141  0.76137911  0.48198670    -0.77500
O282        O  0.93111782  0.78879128  0.39096609    -0.82700
C283        C  0.92271919  0.82089352  0.50575886     0.98300
C284        C  0.90685134  0.78345012  0.39796492     1.04300
O285        O  0.91696581  0.79905788  0.52420586    -0.78300
C286        C  0.01022214  0.78640153  0.48926832     1.02600
Fe287      Fe  0.76453873  0.94161440  0.07671399     1.65800
Fe288      Fe  0.82257360  0.92034101  0.12341252     1.73200
Fe289      Fe  0.78856782  0.88016214  0.05265116     1.54400
O290        O  0.74792215  0.87996703  0.05583611    -0.82100
O291        O  0.84964171  0.90875724  0.07463248    -0.80400
O292        O  0.73356738  0.91595893  0.09247271    -0.84600
O293        O  0.75925890  0.93317407  0.00890666    -0.79400
O294        O  0.79103404  0.85836762  0.11251439    -0.81200
O295        O  0.82722774  0.95914260  0.10234570    -0.83900
C296        C  0.77196582  0.91949047  0.98005127     0.96800
C297        C  0.72950201  0.89366766  0.07328977     1.04300
O298        O  0.79175043  0.91397388  0.08481981    -1.12900
O299        O  0.79925563  0.93234873  0.17657946    -0.75400
O300        O  0.76643788  0.95484382  0.14350294    -0.78800
O301        O  0.78688170  0.90010714  0.99123878    -0.79500
C302        C  0.78008337  0.94865315  0.17813573     0.95700
O303        O  0.79280959  0.96924255  0.05802096    -0.77500
O304        O  0.82173323  0.88231868  0.14894670    -0.82700
C305        C  0.84960452  0.88748623  0.05155550     0.98300
C306        C  0.80816746  0.86131375  0.14390992     1.04300
O307        O  0.82853405  0.87471630  0.04378128    -0.78300
C308        C  0.81549406  0.97437006  0.07453442     1.02600
Fe309      Fe  0.97422545  0.22282220  0.97440338     1.65800
Fe310      Fe  0.95324680  0.16817592  0.92134584     1.73200
Fe311      Fe  0.91564483  0.19417829  0.00320444     1.54400
O312        O  0.93590147  0.20292087  0.06347777    -0.82100
O313        O  0.92080525  0.18168300  0.88661657    -0.80400
O314        O  0.97654655  0.21484248  0.04168622    -0.84600
O315        O  0.94667284  0.25347095  0.98764885    -0.79400
O316        O  0.92054558  0.15470560  0.01889071    -0.81200
O317        O  0.97810046  0.19111165  0.88188058    -0.83900
C318        C  0.92176025  0.25402201  0.99511644     0.96800
C319        C  0.95999614  0.20867891  0.07201682     1.04300
O320        O  0.94739688  0.19557700  0.96642504    -1.12900
O321        O  0.98548253  0.15511284  0.95749007    -0.75400
O322        O  0.00499261  0.19476421  0.96559123    -0.78800
O323        O  0.90739574  0.23345193  0.99352890    -0.79500
C324        C  0.00555652  0.16932290  0.96699570     0.95700
O325        O  0.97472912  0.23255801  0.90630140    -0.77500
O326        O  0.92946984  0.13938791  0.95084805    -0.82700
C327        C  0.89745392  0.18313941  0.90268679     0.98300
C328        C  0.92021662  0.13613291  0.99019797     1.04300
O329        O  0.89265277  0.18504200  0.94524074    -0.78300
C330        C  0.98246078  0.21571976  0.87722156     1.02600
Fe331      Fe  0.77083299  0.01919298  0.58490175     1.65800
Fe332      Fe  0.82695253  0.04218200  0.62923442     1.73200
Fe333      Fe  0.79472589  0.07984840  0.55343218     1.54400
O334        O  0.78513199  0.05894789  0.49343277    -0.82100
O335        O  0.81367892  0.07331282  0.66660943    -0.80400
O336        O  0.77457812  0.01804513  0.51653791    -0.84600
O337        O  0.73821539  0.04514120  0.57878301    -0.79400
O338        O  0.83379337  0.07875470  0.53243052    -0.81200
O339        O  0.80768002  0.01621556  0.67160952    -0.83900
C340        C  0.73579475  0.07019698  0.57377133     0.96800
C341        C  0.77927954  0.03464004  0.48538240     1.04300
O342        O  0.79716472  0.04729860  0.58871744    -1.12900
O343        O  0.83971346  0.01067014  0.59108886    -0.75400
O344        O  0.80071975  0.98963313  0.58821117    -0.78800
O345        O  0.75549567  0.08542498  0.56888767    -0.79500
C346        C  0.82604964  0.98979801  0.58469712     0.95700
O347        O  0.76516806  0.01781281  0.65433735    -0.77500
O348        O  0.85272491  0.06753258  0.59684421    -0.82700
C349        C  0.80866730  0.09685636  0.65350211     0.98300
C350        C  0.85364045  0.07850717  0.55850292     1.04300
O351        O  0.80430485  0.10283913  0.61180934    -0.78300
C352        C  0.78377361  0.01114950  0.68085841     1.02600
C353        C  0.87541522  0.17969031  0.87049220    -0.01700
C354        C  0.87605771  0.19217427  0.82823686    -0.09700
C355        C  0.85949379  0.18374757  0.79308740    -0.18500
C356        C  0.84258555  0.16165358  0.79873389     0.03900
C357        C  0.84095306  0.15017375  0.84266644     0.18000
C358        C  0.85682059  0.15970405  0.87821999    -0.20000
C359        C  0.82509163  0.12789512  0.85007185    -0.21200
C360        C  0.81226948  0.11556151  0.81420221    -0.19800
C361        C  0.81487161  0.12532626  0.77014856     0.19400
C362        C  0.82905287  0.14913514  0.76182954     0.01600
C363        C  0.83065084  0.15809826  0.71643254    -0.14500
C364        C  0.82148657  0.14231374  0.68053518    -0.12200
C365        C  0.81006657  0.11754580  0.68905648     0.01100
C366        C  0.80517543  0.11016410  0.73400603    -0.24400
H367        H  0.89034626  0.20771468  0.82177013     0.09100
H368        H  0.86155034  0.19386075  0.76119168     0.12700
H369        H  0.85661486  0.14972203  0.91072790     0.11400
H370        H  0.82367749  0.11913235  0.88344760     0.12600
H371        H  0.80125762  0.09752114  0.82067290     0.11600
H372        H  0.84015540  0.17648371  0.70745744     0.08700
H373        H  0.82522404  0.14855875  0.64609484     0.12000
H374        H  0.79582775  0.09121661  0.74086396     0.13800
C375        C  0.82921328  0.99889509  0.06108805    -0.01700
C376        C  0.82943904  0.00708943  0.01591147    -0.09700
C377        C  0.84457153  0.02894368  0.00265995    -0.18500
C378        C  0.85951993  0.04359666  0.03466370     0.03900
C379        C  0.85771427  0.03613837  0.08089800     0.18000
C380        C  0.84322146  0.01360233  0.09344451    -0.20000
C381        C  0.87032966  0.05123857  0.11435047    -0.21200
C382        C  0.88469363  0.07374261  0.10288380    -0.19800
C383        C  0.88778068  0.08100190  0.05753104     0.19400
C384        C  0.87584951  0.06560004  0.02265970     0.01600
C385        C  0.88114653  0.07264990  0.97732574    -0.14500
C386        C  0.89662100  0.09477417  0.96715059    -0.12200
C387        C  0.90703280  0.11081197  0.00164597     0.01100
C388        C  0.90272678  0.10363000  0.04682106    -0.24400
H389        H  0.81852165  0.99605431  0.99053008     0.09100
H390        H  0.84392104  0.03411623  0.96729963     0.12700
H391        H  0.84262167  0.00756882  0.12864127     0.11400
H392        H  0.86876446  0.04581717  0.14971323     0.12600
H393        H  0.89382165  0.08530099  0.12963635     0.11600
H394        H  0.87379521  0.06130591  0.94902424     0.08700
H395        H  0.89968158  0.09985641  0.93195302     0.12000
H396        H  0.91095606  0.11574107  0.07374060     0.13800
C397        C  0.77869038  0.99572327  0.72242907    -0.01700
C398        C  0.75483164  0.99746224  0.74622126    -0.09700
C399        C  0.75144626  0.98335523  0.78669096    -0.18500
C400        C  0.77188485  0.96682552  0.80413252     0.03900
C401        C  0.79558533  0.96453041  0.77865842     0.18000
C402        C  0.79875043  0.97893294  0.73867884    -0.20000
C403        C  0.81628262  0.94812944  0.79336957    -0.21200
C404        C  0.81430843  0.93430191  0.83371809    -0.19800
C405        C  0.79171500  0.93677344  0.86060509     0.19400
C406        C  0.77003245  0.95287500  0.84614278     0.01600
C407        C  0.74791775  0.95495641  0.87514122    -0.14500
C408        C  0.74805533  0.94282905  0.91760414    -0.12200
C409        C  0.76991809  0.92783282  0.93225197     0.01100
C410        C  0.79125097  0.92410659  0.90286909    -0.24400
H411        H  0.73900718  0.01017703  0.73407006     0.09100
H412        H  0.73274144  0.98586736  0.80358986     0.12700
H413        H  0.81711209  0.97700464  0.71995916     0.11400
H414        H  0.83430227  0.94622068  0.77375582     0.12600
H415        H  0.83085863  0.92207480  0.84449193     0.11600
H416        H  0.73065446  0.96654323  0.86668671     0.08700
H417        H  0.73121853  0.94586307  0.93970318     0.12000
H418        H  0.80832147  0.91275482  0.91410115     0.13800
C419        C  0.77464232  0.96178224  0.22182034    -0.01700
C420        C  0.77032167  0.98927046  0.22399708    -0.09700
C421        C  0.76985393  0.00250211  0.26576772    -0.18500
C422        C  0.77343010  0.98842552  0.30674546     0.03900
C423        C  0.77628715  0.96029768  0.30403073     0.18000
C424        C  0.77716144  0.94742071  0.26196957    -0.20000
C425        C  0.77893019  0.94511354  0.34327117    -0.21200
C426        C  0.77936010  0.95723498  0.38535950    -0.19800
C427        C  0.77760522  0.98488279  0.38922619     0.19400
C428        C  0.77463719  0.00104579  0.35023259     0.01600
C429        C  0.77362841  0.02899211  0.35672883    -0.14500
C430        C  0.77546851  0.04024206  0.40023405    -0.12200
C431        C  0.77806437  0.02399423  0.43842986     0.01100
C432        C  0.77912223  0.99634061  0.43223833    -0.24400
H433        H  0.76857990  0.00075944  0.19317283     0.09100
H434        H  0.76703338  0.02372966  0.26496069     0.12700
H435        H  0.78041300  0.92612347  0.26035653     0.11400
H436        H  0.78087957  0.92369148  0.34139217     0.12600
H437        H  0.78154262  0.94487800  0.41514752     0.11600
H438        H  0.77168885  0.04261291  0.32880617     0.08700
H439        H  0.77457056  0.06162323  0.40399984     0.12000
H440        H  0.78149252  0.98339564  0.46127436     0.13800
C441        C  0.88825041  0.78770341  0.35963665    -0.01700
C442        C  0.86178793  0.79483473  0.36710553    -0.09700
C443        C  0.84541956  0.80255231  0.33103834    -0.18500
C444        C  0.85506809  0.80327683  0.28607910     0.03900
C445        C  0.88149791  0.79450354  0.27851968     0.18000
C446        C  0.89770197  0.78697150  0.31501957    -0.20000
C447        C  0.89199164  0.79417452  0.23473876    -0.21200
C448        C  0.87725075  0.80357009  0.19839095    -0.19800
C449        C  0.85177671  0.81385334  0.20499245     0.19400
C450        C  0.83999595  0.81339612  0.24867594     0.01600
C451        C  0.81436561  0.82465211  0.25330215    -0.14500
C452        C  0.80217894  0.83794555  0.21714357    -0.12200
C453        C  0.81471941  0.83958528  0.17513572     0.01100
C454        C  0.83887301  0.82643509  0.16874881    -0.24400
H455        H  0.85400083  0.79553212  0.40120142     0.09100
H456        H  0.82546714  0.80835229  0.33951533     0.12700
H457        H  0.91807317  0.78116127  0.30873731     0.11400
H458        H  0.91202213  0.78723966  0.22872339     0.12600
H459        H  0.88626669  0.80378189  0.16513600     0.11600
H460        H  0.80397887  0.82495932  0.28512407     0.08700
H461        H  0.78381889  0.84859823  0.22293780     0.12000
H462        H  0.84890098  0.82832213  0.13645918     0.13800
C463        C  0.91077100  0.84582280  0.52344243    -0.01700
C464        C  0.88972370  0.84477053  0.55422649    -0.09700
C465        C  0.87593238  0.86774958  0.56657209    -0.18500
C466        C  0.88280126  0.89278685  0.54854224     0.03900
C467        C  0.90511926  0.89401378  0.51936531     0.18000
C468        C  0.91866871  0.87067616  0.50684515    -0.20000
C469        C  0.91351841  0.91847987  0.50224913    -0.21200
C470        C  0.90007664  0.94178084  0.51314224    -0.19800
C471        C  0.87745380  0.94112828  0.54040447     0.19400
C472        C  0.86827250  0.91658767  0.55811923     0.01600
C473        C  0.84457819  0.91689610  0.58364415    -0.14500
C474        C  0.83070941  0.94055248  0.59128423    -0.12200
C475        C  0.84019667  0.96470993  0.57463828     0.01100
C476        C  0.86371977  0.96487824  0.54953524    -0.24400
H477        H  0.88325379  0.82592796  0.56786055     0.09100
H478        H  0.85990123  0.86522636  0.59015701     0.12700
H479        H  0.93509759  0.87184935  0.48338277     0.11400
H480        H  0.93061372  0.91960904  0.48023556     0.12600
H481        H  0.90713751  0.96039745  0.49941401     0.11600
H482        H  0.83599385  0.89913468  0.59752456     0.08700
H483        H  0.81268538  0.94001445  0.61107991     0.12000
H484        H  0.87106546  0.98352021  0.53628241     0.13800
C485        C  0.15257856  0.87222074  0.54603912    -0.01700
C486        C  0.15459692  0.84784348  0.52340359    -0.09700
C487        C  0.13214822  0.83236367  0.51549683    -0.18500
C488        C  0.10679961  0.84106897  0.52950505     0.03900
C489        C  0.10480913  0.86648075  0.55044866     0.18000
C490        C  0.12760665  0.88154265  0.55905653    -0.20000
C491        C  0.08009949  0.87665971  0.56302296    -0.21200
C492        C  0.05717865  0.86228248  0.55479038    -0.19800
C493        C  0.05847390  0.83711291  0.53475822     0.19400
C494        C  0.08330875  0.82577198  0.52285381     0.01600
C495        C  0.08342094  0.79970099  0.50473454    -0.14500
C496        C  0.05972967  0.78625093  0.49607678    -0.12200
C497        C  0.03530239  0.79837507  0.50506695     0.01100
C498        C  0.03491693  0.82347870  0.52563588    -0.24400
H499        H  0.17378964  0.84017141  0.51346505     0.09100
H500        H  0.13526862  0.81368150  0.49832946     0.12700
H501        H  0.12597431  0.90048949  0.57640941     0.11400
H502        H  0.07845284  0.89604013  0.57884175     0.12600
H503        H  0.03827782  0.87092875  0.56415499     0.11600
H504        H  0.10149309  0.78928570  0.49650152     0.08700
H505        H  0.06052651  0.76675684  0.48056927     0.12000
H506        H  0.01608347  0.83279176  0.53360375     0.13800
C507        C  0.87483546  0.87586765  0.03517275    -0.01700
C508        C  0.89894481  0.88916187  0.04058991    -0.09700
C509        C  0.92286169  0.87667207  0.02947385    -0.18500
C510        C  0.92339943  0.85020943  0.01301449     0.03900
C511        C  0.89881776  0.83705056  0.00690755     0.18000
C512        C  0.87502110  0.84994563  0.01754552    -0.20000
C513        C  0.89804267  0.81085677  0.99102394    -0.21200
C514        C  0.92127806  0.79722758  0.98129400    -0.19800
C515        C  0.94585853  0.80947781  0.98709141     0.19400
C516        C  0.94732725  0.83619473  0.00281942     0.01600
C517        C  0.97268916  0.84761928  0.00774746    -0.14500
C518        C  0.99549418  0.83322886  0.99712319    -0.12200
C519        C  0.99392066  0.80693383  0.98165351     0.01100
C520        C  0.96901068  0.79512879  0.97701586    -0.24400
H521        H  0.89939559  0.90914047  0.05422887     0.09100
H522        H  0.94057814  0.88811593  0.03487112     0.12700
H523        H  0.85655873  0.83926707  0.01343039     0.11400
H524        H  0.87930747  0.80075129  0.98638368     0.12600
H525        H  0.92000636  0.77692850  0.96920928     0.11600
H526        H  0.97560837  0.86766228  0.01951314     0.08700
H527        H  0.01454398  0.84279185  0.00121006     0.12000
H528        H  0.96758807  0.77487372  0.96471383     0.13800
C529        C  0.21442691  0.84409703  0.68972391    -0.01700
C530        C  0.22430900  0.84587106  0.73385443    -0.09700
C531        C  0.21481607  0.82919696  0.76782728    -0.18500
C532        C  0.19408445  0.81107017  0.75892972     0.03900
C533        C  0.18514248  0.80847201  0.71341463     0.18000
C534        C  0.19601157  0.82432216  0.67910477    -0.20000
C535        C  0.16379365  0.79185750  0.70308162    -0.21200
C536        C  0.14956707  0.77967252  0.73742478    -0.19800
C537        C  0.15689403  0.78316478  0.78273686     0.19400
C538        C  0.18021380  0.79746051  0.79400702     0.01600
C539        C  0.18747864  0.79899616  0.84024525    -0.14500
C540        C  0.17048366  0.78979142  0.87405323    -0.12200
C541        C  0.14596725  0.77870302  0.86270123     0.01100
C542        C  0.14004013  0.77403776  0.81698852    -0.24400
H543        H  0.23851613  0.86114628  0.74256273     0.09100
H544        H  0.22270513  0.83235805  0.80129849     0.12700
H545        H  0.18801155  0.82327355  0.64504276     0.11400
H546        H  0.15699756  0.78963002  0.66846854     0.12600
H547        H  0.13209633  0.76832297  0.72860274     0.11600
H548        H  0.20564965  0.80811264  0.85135750     0.08700
H549        H  0.17571031  0.79313525  0.90916752     0.12000
H550        H  0.12136603  0.76482327  0.80798000     0.13800
C551        C  0.00430311  0.74733488  0.33834283    -0.01700
C552        C  0.00061232  0.72445975  0.31217517    -0.09700
C553        C  0.01186259  0.72247744  0.26896670    -0.18500
C554        C  0.02733852  0.74337814  0.25083607     0.03900
C555        C  0.03213207  0.76582942  0.27873786     0.18000
C556        C  0.02056368  0.76763148  0.32162516    -0.20000
C557        C  0.04813463  0.78662554  0.26353078    -0.21200
C558        C  0.05943703  0.78576209  0.22077319    -0.19800
C559        C  0.05444498  0.76441688  0.19169909     0.19400
C560        C  0.03805812  0.74303164  0.20607724     0.01600
C561        C  0.03238140  0.72276350  0.17444663    -0.14500
C562        C  0.04217975  0.72393755  0.13040480    -0.12200
C563        C  0.05850344  0.74485915  0.11671445     0.01100
C564        C  0.06500264  0.76479807  0.14770282    -0.24400
H565        H  0.98835417  0.70843789  0.32453199     0.09100
H566        H  0.00805103  0.70436899  0.25050673     0.12700
H567        H  0.02404602  0.78523213  0.34201634     0.11400
H568        H  0.05190386  0.80374556  0.28486894     0.06200
H569        H  0.07169230  0.80220786  0.20999159     0.11600
H570        H  0.01966308  0.70621120  0.18223728     0.08700
H571        H  0.03670079  0.70851425  0.10658072     0.12000
H572        H  0.07709880  0.78135440  0.13676689     0.13800
C573        C  0.95995345  0.73418901  0.61998142    -0.01700
C574        C  0.97735499  0.71366197  0.63237241    -0.09700
C575        C  0.98752078  0.71199373  0.67625567    -0.18500
C576        C  0.98113716  0.73134441  0.70914280     0.03900
C577        C  0.96202137  0.75106104  0.69724600     0.18000
C578        C  0.95131717  0.75203266  0.65320055    -0.20000
C579        C  0.95489028  0.77066666  0.72853998    -0.21200
C580        C  0.96752751  0.77222396  0.77026173    -0.19800
C581        C  0.98752206  0.75413342  0.78185954     0.19400
C582        C  0.99403802  0.73281296  0.75233306     0.01600
C583        C  0.01403111  0.71477475  0.76664418    -0.14500
C584        C  0.02794910  0.71871935  0.80725914    -0.12200
C585        C  0.02248581  0.74081102  0.83448781     0.01100
C586        C  0.00174896  0.75792825  0.82215348    -0.24400
H587        H  0.98394730  0.69936672  0.60736735     0.09100
H588        H  0.00131018  0.69595090  0.68282714     0.12700
H589        H  0.93787836  0.76798756  0.64383583     0.11400
H590        H  0.94014640  0.78555362  0.72001272     0.12600
H591        H  0.96220207  0.78825306  0.79308245     0.11600
H592        H  0.01978760  0.69770549  0.74660873     0.08700
H593        H  0.04369895  0.70511705  0.81646881     0.12000
H594        H  0.99703817  0.77477083  0.84374959     0.13800
C595        C  0.19142476  0.96221301  0.06530528    -0.01700
C596        C  0.20335806  0.93745521  0.07260885    -0.09700
C597        C  0.18996318  0.91398147  0.06187329    -0.18500
C598        C  0.16416999  0.91458782  0.04290012     0.03900
C599        C  0.15273874  0.93979429  0.03351949     0.18000
C600        C  0.16618337  0.96317240  0.04533726    -0.20000
C601        C  0.12794151  0.94155409  0.01239378    -0.21200
C602        C  0.11429256  0.91873113  0.99986556    -0.19800
C603        C  0.12466286  0.89357407  0.00959376     0.19400
C604        C  0.14943400  0.89116374  0.03238535     0.01600
C605        C  0.15817600  0.86542819  0.04424887    -0.14500
C606        C  0.14341624  0.84306341  0.03263910    -0.12200
C607        C  0.11973180  0.84542254  0.00815572     0.01100
C608        C  0.11038791  0.87076751  0.99678831    -0.24400
H609        H  0.22287833  0.93618927  0.08774126     0.09100
H610        H  0.20041256  0.89568884  0.06841815     0.12700
H611        H  0.15693792  0.98226422  0.03881653     0.11400
H612        H  0.11917729  0.96074358  0.00498692     0.12600
H613        H  0.09533625  0.92077886  0.98293615     0.11600
H614        H  0.17618766  0.86193615  0.06296371     0.08700
H615        H  0.15102583  0.82365595  0.04182083     0.12000
H616        H  0.09188850  0.87272635  0.97836903     0.13800
C617        C  0.03050367  0.15577308  0.97919038    -0.01700
C618        C  0.05464390  0.16451178  0.96167568    -0.09700
C619        C  0.07818863  0.15107751  0.97178712    -0.18500
C620        C  0.07832713  0.12869719  0.00075216     0.03900
C621        C  0.05382682  0.12066928  0.01992936     0.18000
C622        C  0.03020981  0.13385771  0.00830200    -0.20000
C623        C  0.05306194  0.09966195  0.05084778    -0.21200
C624        C  0.07617138  0.08647282  0.06339287    -0.19800
C625        C  0.10053359  0.09348540  0.04441978     0.19400
C626        C  0.10189385  0.11431602  0.01207176     0.01600
C627        C  0.12677747  0.11976024  0.99240119    -0.14500
C628        C  0.14949435  0.10597936  0.00584404    -0.12200
C629        C  0.14833238  0.08641752  0.03947402     0.01100
C630        C  0.12362805  0.07997119  0.05804038    -0.24400
H631        H  0.05523050  0.18152086  0.93930419     0.09100
H632        H  0.09598437  0.15893424  0.95696111     0.12700
H633        H  0.01155056  0.12737258  0.02258836     0.11400
H634        H  0.03448513  0.09360042  0.06588879     0.12600
H635        H  0.07495377  0.07056987  0.08795031     0.11600
H636        H  0.12935570  0.13456436  0.96652857     0.08700
H637        H  0.16824198  0.11129780  0.99066472     0.12000
H638        H  0.12238935  0.06465951  0.08368236     0.13800
C639        C  0.25696757  0.03166296  0.94254367    -0.01700
C640        C  0.27683089  0.01329885  0.93124534    -0.09700
C641        C  0.27831039  0.00240111  0.88787897    -0.18500
C642        C  0.25936796  0.00906365  0.85451629     0.03900
C643        C  0.23998343  0.02865971  0.86564438     0.18000
C644        C  0.23931345  0.04014414  0.90905734    -0.20000
C645        C  0.22044429  0.03562471  0.83422863    -0.21200
C646        C  0.21880872  0.02258466  0.79289811    -0.19800
C647        C  0.23694863  0.00258024  0.78164635     0.19400
C648        C  0.25809027  0.99608801  0.81145049     0.01600
C649        C  0.27642163  0.97633156  0.79725713    -0.14500
C650        C  0.27305162  0.96281801  0.75613469    -0.12200
C651        C  0.25122711  0.96835100  0.72851072     0.01100
C652        C  0.23360604  0.98857473  0.74107008    -0.24400
H653        H  0.29083998  0.00664051  0.95667552     0.09100
H654        H  0.29373498  0.98798863  0.88219662     0.12700
H655        H  0.22379578  0.05417148  0.91776876     0.11400
H656        H  0.20572986  0.05060653  0.84231446     0.12600
H657        H  0.20289224  0.02783629  0.76989324     0.11600
H658        H  0.29335493  0.97072948  0.81729371     0.08700
H659        H  0.28702416  0.94742280  0.74664273     0.12000
H660        H  0.21699425  0.99329625  0.71913410     0.13800
C661        C  0.25470607  0.93629307  0.44363411    -0.01700
C662        C  0.24327897  0.92153969  0.40853385    -0.09700
C663        C  0.24315764  0.93125298  0.36419221    -0.18500
C664        C  0.25455051  0.95617779  0.35359554     0.03900
C665        C  0.26729216  0.97035481  0.38900876     0.18000
C666        C  0.26724785  0.96037724  0.43325127    -0.20000
C667        C  0.27944466  0.99478355  0.38041658    -0.21200
C668        C  0.27868642  0.00587432  0.33743404    -0.19800
C669        C  0.26547310  0.99297400  0.30209610     0.19400
C670        C  0.25327125  0.96786622  0.30957116     0.01600
C671        C  0.23946033  0.95609089  0.27308181    -0.14500
C672        C  0.23702419  0.96915842  0.23171343    -0.12200
C673        C  0.24882880  0.99390824  0.22486425     0.01100
C674        C  0.26355399  0.00550226  0.25969774    -0.24400
H675        H  0.23362840  0.90282116  0.41556875     0.09100
H676        H  0.23369038  0.91894060  0.33911712     0.12700
H677        H  0.27658869  0.97179744  0.45999279     0.11400
H678        H  0.28931798  0.00558532  0.40731766     0.12600
H679        H  0.28797476  0.02498526  0.33205953     0.11600
H680        H  0.22959246  0.93722861  0.27582748     0.08700
H681        H  0.22547149  0.96003988  0.20494821     0.12000
H682        H  0.27231349  0.02489796  0.25450699     0.13800
C683        C  0.99395628  0.16456924  0.48757222    -0.01700
C684        C  0.98309736  0.16822538  0.53059361    -0.09700
C685        C  0.96024171  0.15462279  0.54337842    -0.18500
C686        C  0.94718117  0.13728715  0.51289630     0.03900
C687        C  0.95744339  0.13494894  0.46834081     0.18000
C688        C  0.98098873  0.14801586  0.45648161    -0.20000
C689        C  0.94410914  0.11964457  0.43593295    -0.21200
C690        C  0.92070707  0.10659768  0.44682799    -0.19800
C691        C  0.91066164  0.10759418  0.49090228     0.19400
C692        C  0.92417813  0.12243043  0.52484771     0.01600
C693        C  0.91444400  0.12126321  0.56954056    -0.14500
C694        C  0.89196978  0.10649636  0.57985508    -0.12200
C695        C  0.87805707  0.09281800  0.54607255     0.01100
C696        C  0.88737873  0.09355771  0.50149610    -0.24400
H697        H  0.99275550  0.18112835  0.55489940     0.09100
H698        H  0.95306351  0.15838800  0.57709121     0.12700
H699        H  0.98911104  0.14558341  0.42279036     0.11400
H700        H  0.95167048  0.11800374  0.40175922     0.12600
H701        H  0.91068150  0.09520812  0.42080964     0.11600
H702        H  0.92408193  0.13107880  0.59747972     0.08700
H703        H  0.88509394  0.10620148  0.61455715     0.12000
H704        H  0.87686356  0.08271536  0.47534029     0.13800
C705        C  0.99906909  0.22359398  0.83870031    -0.01700
C706        C  0.02396292  0.21159359  0.83423702    -0.09700
C707        C  0.03843334  0.21392767  0.79436849    -0.18500
C708        C  0.02800951  0.22782581  0.75685595     0.03900
C709        C  0.00329595  0.24122326  0.76247313     0.18000
C710        C  0.98922303  0.23929277  0.80349140    -0.20000
C711        C  0.99211111  0.25521256  0.72629670    -0.21200
C712        C  0.00415521  0.25500976  0.68402565    -0.19800
C713        C  0.02774224  0.24088944  0.67689046     0.19400
C714        C  0.04045705  0.22770331  0.71339830     0.01600
C715        C  0.06443905  0.21401109  0.70422130    -0.14500
C716        C  0.07446609  0.21219817  0.66021494    -0.12200
C717        C  0.06116716  0.22416923  0.62396223     0.01100
C718        C  0.03817884  0.23913656  0.63299522    -0.24400
H719        H  0.03185445  0.19944472  0.86136949     0.09100
H720        H  0.05719386  0.20366988  0.79340434     0.12700
H721        H  0.96983208  0.24840335  0.80684015     0.11400
H722        H  0.97345741  0.26565204  0.73030832     0.12600
H723        H  0.99453251  0.26536671  0.65635748     0.11600
H724        H  0.07567215  0.20398570  0.73016002     0.08700
H725        H  0.09244941  0.20091822  0.65448977     0.12000
H726        H  0.02776779  0.24888198  0.60549199     0.13800
C727        C  0.03702191  0.21846016  0.32985432    -0.01700
C728        C  0.01221604  0.23076874  0.32540681    -0.09700
C729        C  0.99837380  0.22974874  0.28428484    -0.18500
C730        C  0.00911414  0.21640034  0.24628969     0.03900
C731        C  0.03508033  0.20559644  0.25045370     0.18000
C732        C  0.04857891  0.20662276  0.29182004    -0.20000
C733        C  0.04728893  0.19316640  0.21365362    -0.21200
C734        C  0.03428206  0.19117245  0.17250339    -0.19800
C735        C  0.00851206  0.20096322  0.16751214     0.19400
C736        C  0.99522624  0.21330805  0.20435662     0.01600
C737        C  0.96864577  0.22164243  0.19748877    -0.14500
C738        C  0.95634991  0.21889660  0.15510337    -0.12200
C739        C  0.97031080  0.20803994  0.11862870     0.01100
C740        C  0.99611384  0.19867487  0.12542856    -0.24400
H741        H  0.00282679  0.23991307  0.35446084     0.09100
H742        H  0.97917625  0.23919976  0.28338116     0.12700
H743        H  0.06786879  0.19722361  0.29492062     0.11400
H744        H  0.06709158  0.18497819  0.21668460     0.12600
H745        H  0.04438644  0.18166669  0.14443827     0.11600
H746        H  0.95697232  0.23043209  0.22416391     0.08700
H747        H  0.93635081  0.22623424  0.15036990     0.12000
H748        H  0.00683360  0.18987538  0.09729621     0.13800
C749        C  0.15544117  0.18117955  0.38381697    -0.01700
C750        C  0.15529012  0.19389146  0.34176407    -0.09700
C751        C  0.17006887  0.18370919  0.30553013    -0.18500
C752        C  0.18464557  0.15976863  0.31002531     0.03900
C753        C  0.18601356  0.14804010  0.35378761     0.18000
C754        C  0.17180833  0.15903838  0.39015769    -0.20000
C755        C  0.19975734  0.12418109  0.36028255    -0.21200
C756        C  0.21044985  0.11056727  0.32371735    -0.19800
C757        C  0.20782676  0.12058202  0.27981445     0.19400
C758        C  0.19601293  0.14586513  0.27232629     0.01600
C759        C  0.19461961  0.15513380  0.22708748    -0.14500
C760        C  0.20214262  0.13880192  0.19071907    -0.12200
C761        C  0.21140166  0.11294517  0.19844101     0.01100
C762        C  0.21545040  0.10459367  0.24316166    -0.24400
H763        H  0.14232816  0.21075734  0.33608700     0.09100
H764        H  0.16832039  0.19402020  0.27372792     0.12700
H765        H  0.17140736  0.14880357  0.42244434     0.11400
H766        H  0.20108749  0.11528697  0.39359159     0.12600
H767        H  0.21982702  0.09148410  0.32961291     0.11600
H768        H  0.18683311  0.17447182  0.21869950     0.08700
H769        H  0.19920710  0.14584657  0.15646662     0.12000
H770        H  0.22322200  0.08482414  0.24947885     0.13800
C771        C  0.18882375  0.99834877  0.57579014    -0.01700
C772        C  0.16312781  0.99638471  0.55812743    -0.09700
C773        C  0.14852058  0.01907088  0.54739812    -0.18500
C774        C  0.15907034  0.04469724  0.55458038     0.03900
C775        C  0.18519718  0.04657449  0.57252684     0.18000
C776        C  0.19987161  0.02353406  0.58236924    -0.20000
C777        C  0.19642425  0.07143626  0.58111115    -0.21200
C778        C  0.18226515  0.09455105  0.57233684    -0.19800
C779        C  0.15666257  0.09338272  0.55419743     0.19400
C780        C  0.14466451  0.06849781  0.54479863     0.01600
C781        C  0.11893920  0.06861809  0.52553051    -0.14500
C782        C  0.10606253  0.09245373  0.51496235    -0.12200
C783        C  0.11815874  0.11689866  0.52384423     0.01100
C784        C  0.14327248  0.11709984  0.54435645    -0.24400
H785        H  0.15418857  0.97711825  0.55253852     0.09100
H786        H  0.12891141  0.01583958  0.53410025     0.12700
H787        H  0.21966247  0.02523564  0.59638521     0.11400
H788        H  0.21626347  0.07302175  0.59491143     0.12600
H789        H  0.19152554  0.11351213  0.57938674     0.11600
H790        H  0.10846416  0.05065053  0.51719997     0.08700
H791        H  0.08677842  0.09170458  0.49889597     0.12000
H792        H  0.15306468  0.13584970  0.55100243     0.13800
C793        C  0.20587865  0.58265422  0.07403108    -0.01700
C794        C  0.18731921  0.57517198  0.04111456    -0.09700
C795        C  0.16623652  0.59209806  0.02955444    -0.18500
C796        C  0.16308925  0.61711791  0.05084923     0.03900
C797        C  0.18059533  0.62333839  0.08719729     0.18000
C798        C  0.20171736  0.60625970  0.09817782    -0.20000
C799        C  0.17793321  0.64731448  0.11071505    -0.21200
C800        C  0.15930104  0.66602923  0.09727682    -0.19800
C801        C  0.14314383  0.66140166  0.05956718     0.19400
C802        C  0.14421480  0.63672835  0.03622797     0.01600
C803        C  0.12735985  0.63353293  0.99798989    -0.14500
C804        C  0.11133855  0.65456248  0.98227535    -0.12200
C805        C  0.11164483  0.67912067  0.00442796     0.01100
C806        C  0.12687159  0.68197400  0.04381557    -0.24400
H807        H  0.19027727  0.55711636  0.02174482     0.09100
H808        H  0.15334092  0.58557481  0.00265473     0.12700
H809        H  0.21601298  0.61215528  0.12372405     0.11400
H810        H  0.19092616  0.65199241  0.13884979     0.12600
H811        H  0.15827541  0.68473494  0.11541831     0.11600
H812        H  0.12690735  0.61536831  0.97865097     0.08700
H813        H  0.09967220  0.65199263  0.95180206     0.12000
H814        H  0.12691204  0.70095902  0.06130022     0.13800
C815        C  0.41033920  0.78669069  0.49871997    -0.01700
C816        C  0.41226171  0.81236405  0.48118190    -0.09700
C817        C  0.39695811  0.83303861  0.49985256    -0.18500
C818        C  0.37954562  0.82831894  0.53668983     0.03900
C819        C  0.37906797  0.80232188  0.55528177     0.18000
C820        C  0.39434440  0.78209256  0.53635327    -0.20000
C821        C  0.36255707  0.79618425  0.59164104    -0.21200
C822        C  0.34505279  0.81493073  0.60842668    -0.19800
C823        C  0.34378647  0.84026185  0.58936265     0.19400
C824        C  0.36161804  0.84779913  0.55443152     0.01600
C825        C  0.35954488  0.87397705  0.53733054    -0.14500
C826        C  0.33881839  0.89078678  0.55087892    -0.12200
C827        C  0.31989768  0.88200753  0.58197171     0.01100
C828        C  0.32343009  0.85739674  0.60291311    -0.24400
H829        H  0.42483066  0.81621951  0.45231743     0.09100
H830        H  0.39864158  0.85228760  0.48418621     0.12700
H831        H  0.39331497  0.76221109  0.55043938     0.11400
H832        H  0.36247187  0.77641318  0.60612269     0.12600
H833        H  0.33169928  0.80924448  0.63536783     0.11600
H834        H  0.37279021  0.88145903  0.51180903     0.08700
H835        H  0.33632701  0.90977342  0.53419369     0.12000
H836        H  0.30882915  0.85064206  0.62717880     0.13800
C837        C  0.37762886  0.68206653  0.36133120    -0.01700
C838        C  0.35708491  0.66487594  0.37316943    -0.09700
C839        C  0.34114251  0.65334104  0.33984549    -0.18500
C840        C  0.34533421  0.65879076  0.29345297     0.03900
C841        C  0.36419872  0.67859193  0.28219284     0.18000
C842        C  0.38035303  0.68975722  0.31601456    -0.20000
C843        C  0.36790531  0.68594060  0.23699474    -0.21200
C844        C  0.35467648  0.67266865  0.20238425    -0.19800
C845        C  0.33807249  0.65121220  0.21209370     0.19400
C846        C  0.33271947  0.64428333  0.25783298     0.01600
C847        C  0.31674191  0.62175832  0.26584828    -0.14500
C848        C  0.30835273  0.60561810  0.23019131    -0.12200
C849        C  0.31465965  0.61190187  0.18542860     0.01100
C850        C  0.32838199  0.63543607  0.17639233    -0.24400
H851        H  0.35455545  0.65881027  0.40804365     0.09100
H852        H  0.32628721  0.63961913  0.35134181     0.12700
H853        H  0.39602482  0.70338541  0.30681165     0.11400
H854        H  0.38179906  0.70145382  0.22824806     0.12600
H855        H  0.35863895  0.67825447  0.16765911     0.11600
H856        H  0.31175871  0.61514062  0.29939329     0.08700
H857        H  0.29764595  0.58754768  0.23775459     0.12000
H858        H  0.33356160  0.64018776  0.14174357     0.13800
C859        C  0.11253030  0.28954985  0.50129210    -0.01700
C860        C  0.11990200  0.30823872  0.46879993    -0.09700
C861        C  0.13624270  0.32972351  0.48089420    -0.18500
C862        C  0.14606679  0.33261041  0.52576547     0.03900
C863        C  0.13737601  0.31409532  0.55864664     0.18000
C864        C  0.12033519  0.29342627  0.54639022    -0.20000
C865        C  0.14711893  0.31509566  0.60300738    -0.21200
C866        C  0.16689697  0.33292478  0.61479145    -0.19800
C867        C  0.17670461  0.35084097  0.58295008     0.19400
C868        C  0.16545094  0.35195237  0.53869895     0.01600
C869        C  0.17492193  0.37168984  0.50896894    -0.14500
C870        C  0.19609007  0.38803958  0.52137380    -0.12200
C871        C  0.20862289  0.38505119  0.56336463     0.01100
C872        C  0.19848250  0.36688212  0.59446734    -0.24400
H873        H  0.11437496  0.30539282  0.43370692     0.09100
H874        H  0.14211064  0.34284009  0.45395488     0.12700
H875        H  0.11464102  0.27891017  0.57165835     0.11400
H876        H  0.14035684  0.30107110  0.62820813     0.12600
H877        H  0.17497293  0.33230904  0.64878830     0.11600
H878        H  0.16673043  0.37453411  0.47559456     0.08700
H879        H  0.20383243  0.40195182  0.49683264     0.12000
H880        H  0.20819125  0.36456520  0.62700678     0.13800
C881        C  0.33560643  0.50469056  0.55780119    -0.01700
C882        C  0.32556758  0.52903877  0.57294590    -0.09700
C883        C  0.33958219  0.55247627  0.56566936    -0.18500
C884        C  0.36393005  0.55223730  0.54207251     0.03900
C885        C  0.37318093  0.52761932  0.52448098     0.18000
C886        C  0.35935280  0.50409273  0.53342063    -0.20000
C887        C  0.39602542  0.52668376  0.49777539    -0.21200
C888        C  0.40956342  0.54986102  0.48722741    -0.19800
C889        C  0.40126685  0.57431719  0.50487092     0.19400
C890        C  0.37899114  0.57565753  0.53411797     0.01600
C891        C  0.37280393  0.60037182  0.55424435    -0.14500
C892        C  0.38684632  0.62318972  0.54293637    -0.12200
C893        C  0.40728303  0.62218655  0.51099789     0.01100
C894        C  0.41485363  0.59755459  0.49294437    -0.24400
H895        H  0.30717658  0.52985913  0.59172616     0.09100
H896        H  0.33064536  0.57050857  0.57817253     0.12700
H897        H  0.36692698  0.48526529  0.52100985     0.11400
H898        H  0.40309618  0.50799215  0.48405264     0.12600
H899        H  0.42672545  0.54862878  0.46536214     0.11600
H900        H  0.35725562  0.60266908  0.57887585     0.08700
H901        H  0.38091506  0.64191954  0.55798103     0.12000
H902        H  0.43109193  0.59652184  0.46905696     0.13800
C903        C  0.27287033  0.43184309  0.42781278    -0.01700
C904        C  0.29184505  0.42225895  0.39748511    -0.09700
C905        C  0.29208234  0.43099804  0.35258573    -0.18500
C906        C  0.27306919  0.44955428  0.33662130     0.03900
C907        C  0.25249822  0.45730965  0.36661459     0.18000
C908        C  0.25275805  0.44868373  0.41182766    -0.20000
C909        C  0.23236878  0.47443420  0.35179758    -0.21200
C910        C  0.23292525  0.48515586  0.30842403    -0.19800
C911        C  0.25394908  0.47951661  0.27911681     0.19400
C912        C  0.27419606  0.46138806  0.29268004     0.01600
C913        C  0.29543693  0.45697679  0.26261006    -0.14500
C914        C  0.29710191  0.47079677  0.22193199    -0.12200
C915        C  0.27751304  0.48910859  0.20905470     0.01100
C916        C  0.25548435  0.49276974  0.23713897    -0.24400
H917        H  0.30738305  0.40902460  0.40911961     0.09100
H918        H  0.30765953  0.42323226  0.33148034     0.12700
H919        H  0.23769226  0.45570903  0.43509257     0.11400
H920        H  0.21634995  0.48002650  0.37426435     0.12600
H921        H  0.21731340  0.49874689  0.29836517     0.11600
H922        H  0.31162116  0.44373162  0.27023770     0.08700
H923        H  0.31417676  0.46736957  0.20051511     0.12000
H924        H  0.24032173  0.50698142  0.22751500     0.13800
C925        C  0.27515232  0.47751036  0.70922625    -0.01700
C926        C  0.29344439  0.49708391  0.72174362    -0.09700
C927        C  0.29091270  0.51099689  0.76228095    -0.18500
C928        C  0.27011627  0.50538767  0.79258948     0.03900
C929        C  0.25108455  0.48601137  0.77930960     0.18000
C930        C  0.25341847  0.47268302  0.73739271    -0.20000
C931        C  0.23061858  0.47917838  0.80892585    -0.21200
C932        C  0.22958434  0.48991294  0.85236299    -0.19800
C933        C  0.24861408  0.50825034  0.86691261     0.19400
C934        C  0.26841713  0.51721355  0.83655055     0.01600
C935        C  0.28623003  0.53692179  0.85217787    -0.14500
C936        C  0.28575941  0.54564265  0.89709642    -0.12200
C937        C  0.26773645  0.53493614  0.92784589     0.01100
C938        C  0.24863414  0.51690684  0.91219906    -0.24400
H939        H  0.31025408  0.50135299  0.70022853     0.09100
H940        H  0.30620068  0.52522381  0.76967257     0.12700
H941        H  0.23928174  0.45746265  0.72801506     0.11400
H942        H  0.21590922  0.46462918  0.79908841     0.12600
H943        H  0.21411485  0.48337917  0.87508473     0.11600
H944        H  0.30108312  0.54562943  0.83080078     0.08700
H945        H  0.30051008  0.55977880  0.90840186     0.12000
H946        H  0.23426754  0.50896342  0.93574975     0.13800
C947        C  0.40979833  0.17900733  0.00057698    -0.01700
C948        C  0.41407739  0.15229952  0.98920520    -0.09700
C949        C  0.39786522  0.13225743  0.00770255    -0.18500
C950        C  0.37726382  0.13850669  0.03874307     0.03900
C951        C  0.37454727  0.16550256  0.05210305     0.18000
C952        C  0.39048553  0.18513722  0.03294143    -0.20000
C953        C  0.35541328  0.17311190  0.08373222    -0.21200
C954        C  0.33776906  0.15471738  0.10084726    -0.19800
C955        C  0.33861244  0.12829104  0.08640912     0.19400
C956        C  0.35865687  0.11946975  0.05600419     0.01600
C957        C  0.35812126  0.09241174  0.04266398    -0.14500
C958        C  0.33729618  0.07561783  0.05595009    -0.12200
C959        C  0.31666550  0.08519649  0.08329823     0.01100
C960        C  0.31833630  0.11115291  0.10011704    -0.24400
H961        H  0.42933824  0.14701715  0.96510365     0.09100
H962        H  0.40163113  0.11213289  0.99686817     0.12700
H963        H  0.38767586  0.20567218  0.04317924     0.11400
H964        H  0.35361540  0.19364048  0.09445557     0.12600
H965        H  0.32266594  0.16146498  0.12426004     0.11600
H966        H  0.37275421  0.08414609  0.02009546     0.08700
H967        H  0.33633820  0.05571158  0.04209298     0.12000
H968        H  0.30251329  0.11873304  0.12137277     0.13800
C969        C  0.38499531  0.28559144  0.86068795    -0.01700
C970        C  0.36150046  0.29891284  0.87168305    -0.09700
C971        C  0.34574575  0.31026539  0.83778664    -0.18500
C972        C  0.35315123  0.30858363  0.79166691     0.03900
C973        C  0.37579891  0.29303922  0.78064403     0.18000
C974        C  0.39142856  0.28183390  0.81500752    -0.20000
C975        C  0.38352375  0.28984703  0.73552328    -0.21200
C976        C  0.36992924  0.30276126  0.70105060    -0.19800
C977        C  0.34863625  0.31962356  0.71096407     0.19400
C978        C  0.33971806  0.32264121  0.75634938     0.01600
C979        C  0.31891594  0.34093251  0.76464265    -0.14500
C980        C  0.30875293  0.35676833  0.72985185    -0.12200
C981        C  0.31813142  0.35406418  0.68560987     0.01100
C982        C  0.33730671  0.33476393  0.67604004    -0.24400
H983        H  0.35611480  0.30200826  0.90677070     0.09100
H984        H  0.32834399  0.32082443  0.84880607     0.12700
H985        H  0.40943642  0.27123020  0.80625470     0.11400
H986        H  0.40061470  0.27779719  0.72692341     0.12600
H987        H  0.37681737  0.30039815  0.66656494     0.11600
H988        H  0.31109880  0.34449225  0.79795437     0.08700
H989        H  0.29409693  0.37183553  0.73779250     0.12000
H990        H  0.34503542  0.33314682  0.64192124     0.13800
C991        C  0.33332215  0.46094509  0.05290657    -0.01700
C992        C  0.32477801  0.43695652  0.07165161    -0.09700
C993        C  0.33913033  0.41346783  0.06478423    -0.18500
C994        C  0.36237880  0.41317763  0.03807194     0.03900
C995        C  0.37009118  0.43734758  0.01711740     0.18000
C996        C  0.35591231  0.46095708  0.02542036    -0.20000
C997        C  0.39197496  0.43784115  0.98814284    -0.21200
C998        C  0.40639451  0.41481321  0.97939811    -0.19800
C999        C  0.39983797  0.39086663  0.00053309     0.19400
C1000       C  0.37807878  0.38979861  0.03093664     0.01600
C1001       C  0.37318069  0.36543751  0.05311399    -0.14500
C1002       C  0.38848529  0.34286553  0.04394064    -0.12200
C1003       C  0.40906720  0.34363983  0.01218976     0.01100
C1004       C  0.41482049  0.36790221  0.99109863    -0.24400
H1005       H  0.30742335  0.43654160  0.09313002     0.09100
H1006       H  0.33146672  0.39584134  0.08061767     0.12700
H1007       H  0.36246246  0.47945310  0.01045528     0.11400
H1008       H  0.39783130  0.45613497  0.97174434     0.12600
H1009       H  0.42298574  0.41581135  0.95627308     0.11600
H1010       H  0.35766953  0.36320344  0.07777658     0.08700
H1011       H  0.38355173  0.32445856  0.06080290     0.12000
H1012       H  0.43079348  0.36887006  0.96670842     0.13800
C1013       C  0.81884512  0.38003355  0.07900058    -0.01700
C1014       C  0.83778532  0.38636094  0.04621992    -0.09700
C1015       C  0.85798045  0.36826529  0.03502690    -0.18500
C1016       C  0.85970051  0.34314683  0.05637517     0.03900
C1017       C  0.84172063  0.33797027  0.09233961     0.18000
C1018       C  0.82167758  0.35630889  0.10320491    -0.20000
C1019       C  0.84270074  0.31378844  0.11546517    -0.21200
C1020       C  0.86007824  0.29391366  0.10199460    -0.19800
C1021       C  0.87681666  0.29766466  0.06490708     0.19400
C1022       C  0.87754267  0.32247964  0.04213021     0.01600
C1023       C  0.89526295  0.32490772  0.00506044    -0.14500
C1024       C  0.91059925  0.30317216  0.99013950    -0.12200
C1025       C  0.90848599  0.27850218  0.01150565     0.01100
C1026       C  0.89212871  0.27624495  0.04955626    -0.24400
H1027       H  0.83572794  0.40441776  0.02663000     0.09100
H1028       H  0.87119085  0.37393222  0.00815298     0.12700
H1029       H  0.80695228  0.35124569  0.12841361     0.11400
H1030       H  0.82929721  0.30987147  0.14324206     0.12600
H1031       H  0.85977775  0.27511442  0.11979549     0.11600
H1032       H  0.89720115  0.34315917  0.98637984     0.08700
H1033       H  0.92332884  0.30539202  0.96096250     0.12000
H1034       H  0.89087511  0.25729887  0.06687088     0.13800
C1035       C  0.65142490  0.37323471  0.03948630    -0.01700
C1036       C  0.65361574  0.35053154  0.01218479    -0.09700
C1037       C  0.63144153  0.33501131  0.00222546    -0.18500
C1038       C  0.60610349  0.34192350  0.01888580     0.03900
C1039       C  0.60389565  0.36545071  0.04542170     0.18000
C1040       C  0.62644995  0.38056055  0.05592148    -0.20000
C1041       C  0.57918130  0.37378914  0.06143348    -0.21200
C1042       C  0.55647526  0.35945844  0.05125432    -0.19800
C1043       C  0.55797974  0.33608716  0.02568338     0.19400
C1044       C  0.58283995  0.32660795  0.00983183     0.01600
C1045       C  0.58321232  0.30223855  0.98574751    -0.14500
C1046       C  0.55977796  0.28841336  0.97661362    -0.12200
C1047       C  0.53529846  0.29856197  0.99065052     0.01100
C1048       C  0.53462445  0.32226108  0.01556399    -0.24400
H1049       H  0.67275166  0.34424869  0.99952158     0.09100
H1050       H  0.63476401  0.31776321  0.98126120     0.12700
H1051       H  0.62455770  0.39810308  0.07704932     0.11400
H1052       H  0.57734944  0.39171147  0.08158254     0.12600
H1053       H  0.53757894  0.36667399  0.06363389     0.11600
H1054       H  0.60130018  0.29335943  0.97349431     0.08700
H1055       H  0.56072909  0.27015601  0.95722562     0.12000
H1056       H  0.51573249  0.33006432  0.02701072     0.13800
C1057       C  0.70930913  0.08292066  0.57076810    -0.01700
C1058       C  0.69148491  0.07564056  0.53650546    -0.09700
C1059       C  0.67028242  0.09242655  0.52449773    -0.18500
C1060       C  0.66631385  0.11711819  0.54660473     0.03900
C1061       C  0.68323322  0.12315131  0.58385565     0.18000
C1062       C  0.70443176  0.10624177  0.59525993    -0.20000
C1063       C  0.67990370  0.14679767  0.60806965    -0.21200
C1064       C  0.66116620  0.16540024  0.59462860    -0.19800
C1065       C  0.64548401  0.16100587  0.55627025     0.19400
C1066       C  0.64720288  0.13662826  0.53210443     0.01600
C1067       C  0.63066458  0.13365827  0.49340220    -0.14500
C1068       C  0.61435685  0.15464580  0.47810486    -0.12200
C1069       C  0.61406752  0.17898716  0.50108490     0.01100
C1070       C  0.62900600  0.18155015  0.54085152    -0.24400
H1071       H  0.69505622  0.05784128  0.51675896     0.09100
H1072       H  0.65792977  0.08610634  0.49670411     0.12700
H1073       H  0.71822262  0.11203534  0.62167560     0.11400
H1074       H  0.69246213  0.15132504  0.63684660     0.12600
H1075       H  0.65964837  0.18385587  0.61340969     0.11600
H1076       H  0.63065019  0.11567886  0.47350766     0.08700
H1077       H  0.60290465  0.15222534  0.44736698     0.12000
H1078       H  0.62859821  0.20030203  0.55904212     0.13800
C1079       C  0.49429226  0.30576282  0.48280140    -0.01700
C1080       C  0.49658393  0.33062931  0.50384255    -0.09700
C1081       C  0.47422551  0.34552856  0.51503887    -0.18500
C1082       C  0.44853176  0.33618558  0.50497238     0.03900
C1083       C  0.44624172  0.31108292  0.48302772     0.18000
C1084       C  0.46900149  0.29596318  0.47282254    -0.20000
C1085       C  0.42126994  0.30141245  0.47083563    -0.21200
C1086       C  0.39851710  0.31614274  0.47978791    -0.19800
C1087       C  0.40008622  0.34067828  0.50199938     0.19400
C1088       C  0.42507821  0.35093750  0.51549728     0.01600
C1089       C  0.42541716  0.37529791  0.53954890    -0.14500
C1090       C  0.40192550  0.38867957  0.55002283    -0.12200
C1091       C  0.37739328  0.37860671  0.53618167     0.01100
C1092       C  0.37668469  0.35474222  0.51167179    -0.24400
H1093       H  0.51591584  0.33870738  0.51177707     0.09100
H1094       H  0.47778796  0.36447623  0.53080604     0.12700
H1095       H  0.46706770  0.27695211  0.45586187     0.11400
H1096       H  0.41932907  0.28240041  0.45391071     0.12600
H1097       H  0.37949884  0.30813172  0.46968335     0.11600
H1098       H  0.44341830  0.38421986  0.55175013     0.08700
H1099       H  0.40295506  0.40692459  0.56944039     0.12000
H1100       H  0.35773510  0.34647580  0.50172254     0.13800
C1101       C  0.55929028  0.24036695  0.61537209    -0.01700
C1102       C  0.53940584  0.22195205  0.62553132    -0.09700
C1103       C  0.52979569  0.21925506  0.66944706    -0.18500
C1104       C  0.53939291  0.23544863  0.70485559     0.03900
C1105       C  0.56001127  0.25375320  0.69458905     0.18000
C1106       C  0.57011591  0.25566007  0.65032763    -0.20000
C1107       C  0.56961803  0.27084864  0.72811782    -0.21200
C1108       C  0.55834010  0.27111283  0.77096725    -0.19800
C1109       C  0.53754154  0.25390725  0.78163417     0.19400
C1110       C  0.52839482  0.23508694  0.74942777     0.01600
C1111       C  0.50807510  0.21738359  0.76297068    -0.14500
C1112       C  0.49607329  0.21967202  0.80553336    -0.12200
C1113       C  0.50388081  0.23966248  0.83552838     0.01100
C1114       C  0.52517968  0.25610199  0.82389784    -0.24400
H1115       H  0.53089124  0.20974269  0.59903571     0.09100
H1116       H  0.51418995  0.20499692  0.67420387     0.12700
H1117       H  0.58534201  0.27008604  0.64258938     0.11400
H1118       H  0.58535524  0.28475659  0.72071066     0.12600
H1119       H  0.56560715  0.28525678  0.79571300     0.11600
H1120       H  0.50071265  0.20188977  0.74116704     0.08700
H1121       H  0.47983969  0.20661980  0.81412595     0.12000
H1122       H  0.53167022  0.27127792  0.84753716     0.13800
C1123       C  0.46363939  0.23516830  0.11653485    -0.01700
C1124       C  0.48097949  0.21463132  0.12903434    -0.09700
C1125       C  0.49121273  0.21311023  0.17291194    -0.18500
C1126       C  0.48497461  0.23272405  0.20547480     0.03900
C1127       C  0.46630162  0.25276144  0.19305940     0.18000
C1128       C  0.45543595  0.25346105  0.14921717    -0.20000
C1129       C  0.45969404  0.27291615  0.22361192    -0.21200
C1130       C  0.47221243  0.27450245  0.26535880    -0.19800
C1131       C  0.49141977  0.25578973  0.27783126     0.19400
C1132       C  0.49755169  0.23407944  0.24891756     0.01600
C1133       C  0.51668636  0.21538912  0.26426564    -0.14500
C1134       C  0.53008756  0.21903607  0.30550286    -0.12200
C1135       C  0.52496009  0.24143802  0.33220393     0.01100
C1136       C  0.50512627  0.25926287  0.31862484    -0.24400
H1137       H  0.48736061  0.20012675  0.10417015     0.09100
H1138       H  0.50483407  0.19709645  0.17967792     0.12700
H1139       H  0.44218827  0.26947909  0.13952734     0.11400
H1140       H  0.44542321  0.28813500  0.21452766     0.12600
H1141       H  0.46727737  0.29089697  0.28765895     0.11600
H1142       H  0.52199854  0.19805376  0.24487046     0.08700
H1143       H  0.54514244  0.20486777  0.31568068     0.12000
H1144       H  0.50062730  0.27633182  0.33975676     0.13800
C1145       C  0.71292719  0.34990341  0.18787442    -0.01700
C1146       C  0.72142783  0.35432853  0.23235748    -0.09700
C1147       C  0.71189672  0.33882878  0.26789457    -0.18500
C1148       C  0.69265016  0.31897208  0.26006503     0.03900
C1149       C  0.68512242  0.31377613  0.21443368     0.18000
C1150       C  0.69581298  0.32876139  0.17883222    -0.20000
C1151       C  0.66556059  0.29497519  0.20480069    -0.21200
C1152       C  0.65208648  0.28238668  0.23957416    -0.19800
C1153       C  0.65815933  0.28795462  0.28481557     0.19400
C1154       C  0.67925626  0.30545216  0.29585335     0.01600
C1155       C  0.68496525  0.30968418  0.34227884    -0.14500
C1156       C  0.66887430  0.29889913  0.37604929    -0.12200
C1157       C  0.64675438  0.28361398  0.36460944     0.01100
C1158       C  0.64220706  0.27730316  0.31905344    -0.24400
H1159       H  0.73459599  0.37071308  0.23992866     0.09100
H1160       H  0.71880563  0.34390367  0.30126725     0.12700
H1161       H  0.68881306  0.32564885  0.14451271     0.11400
H1162       H  0.65979480  0.29085846  0.17015485     0.12600
H1163       H  0.63621656  0.26881719  0.23100883     0.11600
H1164       H  0.70110726  0.32196840  0.35352003     0.08700
H1165       H  0.67268736  0.30408453  0.41105459     0.12000
H1166       H  0.62518313  0.26529309  0.31007030     0.13800
C1167       C  0.81095517  0.58821288  0.55299298    -0.01700
C1168       C  0.83689313  0.58415656  0.56847681    -0.09700
C1169       C  0.85788492  0.59952975  0.55109632    -0.18500
C1170       C  0.85340398  0.61907403  0.51719642     0.03900
C1171       C  0.82715118  0.62183607  0.50042505     0.18000
C1172       C  0.80656005  0.60667657  0.51835857    -0.20000
C1173       C  0.82121925  0.64023645  0.46648370    -0.21200
C1174       C  0.84053596  0.65714713  0.45021417    -0.19800
C1175       C  0.86627646  0.65614995  0.46754049     0.19400
C1176       C  0.87346811  0.63667115  0.50028199     0.01600
C1177       C  0.90002139  0.63671196  0.51590003    -0.14500
C1178       C  0.91775957  0.65677460  0.50277570    -0.12200
C1179       C  0.90962652  0.67716262  0.47348144     0.01100
C1180       C  0.88431148  0.67577122  0.45428309    -0.24400
H1181       H  0.84080830  0.56971654  0.59476584     0.09100
H1182       H  0.87733192  0.59600505  0.56510947     0.12700
H1183       H  0.78662494  0.60942062  0.50528317     0.11400
H1184       H  0.80125364  0.64208690  0.45326558     0.12600
H1185       H  0.83504146  0.67177552  0.42497319     0.11600
H1186       H  0.90716822  0.62227512  0.53999365     0.08700
H1187       H  0.93717527  0.65749680  0.51836599     0.12000
H1188       H  0.87788019  0.69140255  0.43147504     0.13800
C1189       C  0.61851194  0.34574511  0.51150313    -0.01700
C1190       C  0.63944172  0.34438404  0.54269411    -0.09700
C1191       C  0.65402067  0.36697867  0.55404779    -0.18500
C1192       C  0.64789992  0.39196126  0.53491311     0.03900
C1193       C  0.62570069  0.39353936  0.50526884     0.18000
C1194       C  0.61159391  0.37050494  0.49326113    -0.20000
C1195       C  0.61777489  0.41809178  0.48764175    -0.21200
C1196       C  0.63132303  0.44116827  0.49900367    -0.19800
C1197       C  0.65370823  0.44015661  0.52698268     0.19400
C1198       C  0.66276776  0.41547116  0.54448094     0.01600
C1199       C  0.68648865  0.41542244  0.57020695    -0.14500
C1200       C  0.70002075  0.43905434  0.57948142    -0.12200
C1201       C  0.69014450  0.46343050  0.56412195     0.01100
C1202       C  0.66709465  0.46376958  0.53758057    -0.24400
H1203       H  0.64519300  0.32553258  0.55740204     0.09100
H1204       H  0.66987132  0.36429715  0.57810852     0.12700
H1205       H  0.59524198  0.37184464  0.46952153     0.11400
H1206       H  0.60078462  0.41950561  0.46529182     0.12600
H1207       H  0.62442917  0.45992389  0.48532466     0.11600
H1208       H  0.69518880  0.39741582  0.58325816     0.08700
H1209       H  0.71784875  0.43834246  0.59990650     0.12000
H1210       H  0.65958322  0.48256287  0.52494561     0.13800
C1211       C  0.64574234  0.58884085  0.53569607    -0.01700
C1212       C  0.62134338  0.57636793  0.54184617    -0.09700
C1213       C  0.59779766  0.58976196  0.53208278    -0.18500
C1214       C  0.59800993  0.61644443  0.51699230     0.03900
C1215       C  0.62293581  0.62906660  0.51161775     0.18000
C1216       C  0.64643715  0.61502741  0.51996658    -0.20000
C1217       C  0.62428670  0.65580479  0.49900406    -0.21200
C1218       C  0.60132274  0.67033191  0.49109009    -0.19800
C1219       C  0.57649839  0.65829509  0.49459397     0.19400
C1220       C  0.57446863  0.63114033  0.50745855     0.01600
C1221       C  0.54898490  0.61977884  0.50948795    -0.14500
C1222       C  0.52660060  0.63453793  0.49827413    -0.12200
C1223       C  0.52871421  0.66116963  0.48505472     0.01100
C1224       C  0.55368978  0.67310402  0.48420895    -0.24400
H1225       H  0.62050372  0.55626300  0.55473704     0.09100
H1226       H  0.57975602  0.57886905  0.53791610     0.12700
H1227       H  0.66536063  0.62497051  0.51646973     0.11400
H1228       H  0.64325324  0.66560007  0.49547996     0.12600
H1229       H  0.60301451  0.69101951  0.48142289     0.11600
H1230       H  0.54565106  0.59930992  0.51859048     0.08700
H1231       H  0.50748587  0.62487225  0.49956120     0.12000
H1232       H  0.55550218  0.69369079  0.47389979     0.13800
C1233       C  0.75171298  0.53285221  0.43560715    -0.01700
C1234       C  0.73542180  0.54430404  0.40264085    -0.09700
C1235       C  0.73585358  0.53491165  0.35809881    -0.18500
C1236       C  0.75284014  0.51375948  0.34517815     0.03900
C1237       C  0.77084666  0.50377650  0.37802181     0.18000
C1238       C  0.76992969  0.51314806  0.42276083    -0.20000
C1239       C  0.78907113  0.48388810  0.36641361    -0.21200
C1240       C  0.78902975  0.47277787  0.32328243    -0.19800
C1241       C  0.77030411  0.48078200  0.29107486     0.19400
C1242       C  0.75205912  0.50157109  0.30146389     0.01600
C1243       C  0.73288226  0.50824791  0.26852780    -0.14500
C1244       C  0.73108734  0.49406051  0.22813289    -0.12200
C1245       C  0.74866474  0.47323403  0.21847076     0.01100
C1246       C  0.76886010  0.46726089  0.24933202    -0.24400
H1247       H  0.72144183  0.55977010  0.41175135     0.09100
H1248       H  0.72240707  0.54436972  0.33475316     0.12700
H1249       H  0.78304376  0.50462629  0.44800490     0.11400
H1250       H  0.80315338  0.47651664  0.39114739     0.12600
H1251       H  0.80308244  0.45709042  0.31564605     0.11600
H1252       H  0.71826130  0.52358235  0.27368519     0.08700
H1253       H  0.71548422  0.49915815  0.20440989     0.12000
H1254       H  0.78239713  0.45104689  0.24205460     0.13800
C1255       C  0.74759183  0.49871052  0.72060397    -0.01700
C1256       C  0.76718212  0.50735730  0.75063339    -0.09700
C1257       C  0.77036454  0.49505464  0.79286881    -0.18500
C1258       C  0.75416539  0.47338707  0.80598755     0.03900
C1259       C  0.73494845  0.46425858  0.77449272     0.18000
C1260       C  0.73172507  0.47704947  0.73270571    -0.20000
C1261       C  0.71874035  0.44262944  0.78503307    -0.21200
C1262       C  0.72076139  0.43007844  0.82675229    -0.19800
C1263       C  0.73884506  0.43900021  0.85926445     0.19400
C1264       C  0.75594922  0.46068876  0.84926749     0.01600
C1265       C  0.77356618  0.46912120  0.88350260    -0.14500
C1266       C  0.77334873  0.45739334  0.92624560    -0.12200
C1267       C  0.75591523  0.43659415  0.93648539     0.01100
C1268       C  0.73924116  0.42695545  0.90231902    -0.24400
H1269       H  0.77947744  0.52418859  0.74203186     0.09100
H1270       H  0.78555045  0.50307210  0.81460441     0.12700
H1271       H  0.71660598  0.47016279  0.70934347     0.11400
H1272       H  0.70418353  0.43549574  0.76092652     0.12600
H1273       H  0.70769920  0.41358442  0.83396572     0.11600
H1274       H  0.78725383  0.48526401  0.87876201     0.08700
H1275       H  0.78655280  0.46515944  0.95196684     0.12000
H1276       H  0.72549494  0.41108937  0.90999096     0.13800
C1277       C  0.70257351  0.88360331  0.06552865    -0.01700
C1278       C  0.69241848  0.88559183  0.02155251    -0.09700
C1279       C  0.67208921  0.86895903  0.00675341    -0.18500
C1280       C  0.66133684  0.84953246  0.03570995     0.03900
C1281       C  0.66996855  0.84935973  0.08166647     0.18000
C1282       C  0.69072741  0.86608283  0.09599962    -0.20000
C1283       C  0.65876110  0.83154832  0.11235892    -0.21200
C1284       C  0.63986868  0.81329121  0.09811643    -0.19800
C1285       C  0.63248865  0.81168222  0.05248323     0.19400
C1286       C  0.64312580  0.82968098  0.02042502     0.01600
C1287       C  0.63638247  0.82586597  0.97417509    -0.14500
C1288       C  0.62046359  0.80450125  0.96043434    -0.12200
C1289       C  0.61015129  0.78701808  0.99244193     0.01100
C1290       C  0.61571155  0.79111029  0.03836175    -0.24400
H1291       H  0.70159942  0.89886290  0.99741630     0.09100
H1292       H  0.66573144  0.87122933  0.97214740     0.12700
H1293       H  0.69883993  0.86419346  0.12984450     0.11400
H1294       H  0.66494615  0.83145823  0.14749714     0.12600
H1295       H  0.63182588  0.79954778  0.12264373     0.11600
H1296       H  0.64428559  0.83816046  0.94768793     0.08700
H1297       H  0.61706131  0.80104232  0.92471035     0.12000
H1298       H  0.60834815  0.77699002  0.06298285     0.13800
C1299       C  0.49277152  0.65862787  0.98516512    -0.01700
C1300       C  0.49432102  0.63289551  0.00291844    -0.09700
C1301       C  0.47151668  0.61850027  0.01230388    -0.18500
C1302       C  0.44610941  0.62918681  0.00375908     0.03900
C1303       C  0.44452866  0.65550915  0.98645910     0.18000
C1304       C  0.46775489  0.67002918  0.97775977    -0.20000
C1305       C  0.41979660  0.66698896  0.97734914    -0.21200
C1306       C  0.39657696  0.65284210  0.98477236    -0.19800
C1307       C  0.39747947  0.62690115  0.00173710     0.19400
C1308       C  0.42227069  0.61471035  0.01162088     0.01600
C1309       C  0.42205945  0.58862869  0.02927208    -0.14500
C1310       C  0.39836485  0.57559584  0.03823138    -0.12200
C1311       C  0.37402165  0.58781405  0.02913594     0.01100
C1312       C  0.37370147  0.61326397  0.00994440    -0.24400
H1313       H  0.51337062  0.62372646  0.00940384     0.09100
H1314       H  0.47457792  0.59868379  0.02589033     0.12700
H1315       H  0.46634491  0.68994231  0.96387249     0.11400
H1316       H  0.41840062  0.68703565  0.96418313     0.12600
H1317       H  0.37774713  0.66232026  0.97738760     0.11600
H1318       H  0.44004773  0.57776230  0.03755456     0.08700
H1319       H  0.39904680  0.55597686  0.05313283     0.12000
H1320       H  0.35485535  0.62302539  0.00348292     0.13800
C1321       C  0.55840507  0.72649182  0.11631778    -0.01700
C1322       C  0.57224897  0.71386049  0.15123879    -0.09700
C1323       C  0.56328650  0.71557607  0.19585996    -0.18500
C1324       C  0.54006668  0.73010146  0.20682740     0.03900
C1325       C  0.52737802  0.74456493  0.17169838     0.18000
C1326       C  0.53654731  0.74257298  0.12706800    -0.20000
C1327       C  0.50499214  0.76012343  0.18094747    -0.21200
C1328       C  0.49397458  0.76049696  0.22400764    -0.19800
C1329       C  0.50483462  0.74498942  0.25864750     0.19400
C1330       C  0.52834637  0.72992727  0.25077571     0.01600
C1331       C  0.53817767  0.71407142  0.28646168    -0.14500
C1332       C  0.52429181  0.71186955  0.32691239    -0.12200
C1333       C  0.50069890  0.72591443  0.33377259     0.01100
C1334       C  0.49152234  0.74326680  0.30035403    -0.24400
H1335       H  0.58946248  0.70172112  0.14383054     0.09100
H1336       H  0.57467128  0.70491148  0.22075976     0.12700
H1337       H  0.52615093  0.75304470  0.10033138     0.11400
H1338       H  0.49550778  0.77153844  0.15437916     0.12600
H1339       H  0.47622462  0.77216989  0.22976292     0.11600
H1340       H  0.55583302  0.70217416  0.28352390     0.08700
H1341       H  0.53166049  0.69845315  0.35271959     0.12000
H1342       H  0.47310481  0.75395227  0.30562062     0.13800
C1343       C  0.52455422  0.71811268  0.83070948    -0.01700
C1344       C  0.52804829  0.74130203  0.80543372    -0.09700
C1345       C  0.51505831  0.74456907  0.76375274    -0.18500
C1346       C  0.49780127  0.72476960  0.74645039     0.03900
C1347       C  0.49334186  0.70198674  0.77360042     0.18000
C1348       C  0.50685709  0.69877826  0.81475449    -0.20000
C1349       C  0.47569412  0.68226538  0.75931652    -0.21200
C1350       C  0.46280125  0.68425998  0.71787899    -0.19800
C1351       C  0.46767493  0.70572340  0.68915824     0.19400
C1352       C  0.48519024  0.72637705  0.70302619     0.01600
C1353       C  0.49019121  0.74705033  0.67194927    -0.14500
C1354       C  0.47944061  0.74643145  0.62835334    -0.12200
C1355       C  0.46271725  0.72575624  0.61465611     0.01100
C1356       C  0.45615844  0.70593899  0.64570047    -0.24400
H1357       H  0.54140236  0.75660744  0.81731431     0.09100
H1358       H  0.51893558  0.76277190  0.74581448     0.12700
H1359       H  0.50356055  0.68099586  0.83462774     0.11400
H1360       H  0.47202753  0.66499003  0.78019182     0.12600
H1361       H  0.44952757  0.66846258  0.70762580     0.11600
H1362       H  0.50328165  0.76333859  0.67961461     0.08700
H1363       H  0.48484928  0.76185088  0.60461341     0.12000
H1364       H  0.44362359  0.68964164  0.63489351     0.13800
C1365       C  0.70810210  0.61656009  0.68831566    -0.01700
C1366       C  0.69686263  0.64140762  0.67912955    -0.09700
C1367       C  0.68853055  0.65786114  0.71458533    -0.18500
C1368       C  0.69109864  0.64960672  0.76019854     0.03900
C1369       C  0.70542527  0.62582998  0.76898536     0.18000
C1370       C  0.71373256  0.60963297  0.73316586    -0.20000
C1371       C  0.70972895  0.61733013  0.81342433    -0.21200
C1372       C  0.69819082  0.63076289  0.84941246    -0.19800
C1373       C  0.68159106  0.65257215  0.84158781     0.19400
C1374       C  0.67836656  0.66283583  0.79703096     0.01600
C1375       C  0.66046147  0.68419326  0.79079304    -0.14500
C1376       C  0.64438727  0.69288593  0.82625500    -0.12200
C1377       C  0.64664657  0.68154444  0.86922605     0.01100
C1378       C  0.66633485  0.66259127  0.87741793    -0.24400
H1379       H  0.69286739  0.64735105  0.64456372     0.09100
H1380       H  0.67923937  0.67634545  0.70525600     0.12700
H1381       H  0.72314622  0.59069300  0.74029596     0.11400
H1382       H  0.72110416  0.59948544  0.82025889     0.12600
H1383       H  0.70090194  0.62300422  0.88329989     0.11600
H1384       H  0.65702369  0.69322502  0.75830859     0.08700
H1385       H  0.62918693  0.70762386  0.81957217     0.12000
H1386       H  0.66775450  0.65357131  0.91064918     0.13800
C1387       C  0.69127548  0.50163758  0.06537296    -0.01700
C1388       C  0.69980969  0.52568923  0.08407760    -0.09700
C1389       C  0.68538880  0.54909608  0.07707793    -0.18500
C1390       C  0.66212213  0.54919671  0.05023845     0.03900
C1391       C  0.65427037  0.52486189  0.02977412     0.18000
C1392       C  0.66852017  0.50137488  0.03819094    -0.20000
C1393       C  0.63230220  0.52410549  0.00086412    -0.21200
C1394       C  0.61816603  0.54713398  0.99112409    -0.19800
C1395       C  0.62513502  0.57134136  0.01114736     0.19400
C1396       C  0.64671109  0.57260801  0.04206372     0.01600
C1397       C  0.65189557  0.59727077  0.06326769    -0.14500
C1398       C  0.63736127  0.62001787  0.05199630    -0.12200
C1399       C  0.61730478  0.61902617  0.01914924     0.01100
C1400       C  0.61091264  0.59441837  0.99971834    -0.24400
H1401       H  0.71727387  0.52624481  0.10542740     0.09100
H1402       H  0.69308497  0.56682384  0.09269845     0.12700
H1403       H  0.66198257  0.48279966  0.02332492     0.11400
H1404       H  0.62628722  0.50564700  0.98502388     0.12600
H1405       H  0.60161928  0.54598778  0.96778813     0.11600
H1406       H  0.66714418  0.59963726  0.08850123     0.08700
H1407       H  0.64258118  0.63869212  0.06788249     0.12000
H1408       H  0.59515433  0.59329017  0.97481493     0.13800
loop_ 
_geom_bond_atom_site_label_1 
_geom_bond_atom_site_label_2 
_geom_bond_distance 
_geom_bond_site_symmetry_2 
_ccdc_geom_bond_type 
Fe1          O17   2.108       .  S
Fe1           O7   2.047   1_556  S
Fe1          O14   2.081       .  S
Fe1           O6   2.096       .  S
Fe1          O12   1.957       .  S
Fe2           O5   2.076       .  S
Fe2           O9   2.043       .  S
Fe2          O13   2.069       .  S
Fe2          O18   2.048       .  S
Fe2          O12   1.942       .  S
Fe3          O21   2.058   1_556  S
Fe3           O8   2.099       .  S
Fe3          O15   2.091   1_556  S
Fe3           O4   2.045       .  S
Fe3          O12   1.951       .  S
O4           C11   1.265       .  A
O5           C19   1.267   1_556  A
O6           C11   1.274       .  A
O7           C10   1.270       .  A
O8           C20   1.278       .  A
O9           C22   1.271       .  A
C10          O15   1.277       .  A
C10        C1321   1.478       .  S
C11        C1289   1.470       .  S
O13          C16   1.268       .  A
O14          C16   1.271       .  A
C16        C1343   1.483       .  S
O17          C22   1.279       .  A
O18          C20   1.272       .  A
C19          O21   1.264       .  A
C19        C1399   1.484       .  S
C20        C1377   1.467       .  S
C22        C1299   1.481       .  S
Fe23         O39   2.118       .  S
Fe23         O29   2.047       .  S
Fe23         O36   2.084       .  S
Fe23         O28   2.115       .  S
Fe23         O34   1.957       .  S
Fe24         O27   2.066       .  S
Fe24         O31   2.041       .  S
Fe24         O35   2.069       .  S
Fe24         O40   2.043       .  S
Fe24         O34   1.940       .  S
Fe25         O43   2.047       .  S
Fe25         O30   2.101       .  S
Fe25         O37   2.099       .  S
Fe25         O26   2.036       .  S
Fe25         O34   1.943       .  S
O26          C33   1.262       .  A
O27          C41   1.265       .  A
O28          C33   1.275       .  A
O29          C32   1.272       .  A
O30          C42   1.279       .  A
O31          C44   1.269       .  A
C32          O37   1.280       .  A
C32        C1233   1.477       .  S
C33        C1167   1.485       .  S
O35          C38   1.268       .  A
O36          C38   1.273       .  A
C38        C1255   1.479       .  S
O39          C44   1.281       .  A
O40          C42   1.273       .  A
C41          O43   1.262       .  A
C41        C1211   1.468       .  S
C42        C1365   1.473       .  S
C44        C1201   1.479       .  S
Fe45         O61   2.077       .  S
Fe45         O51   2.118       .  S
Fe45         O58   2.123       .  S
Fe45         O50   2.038       .  S
Fe45         O56   1.954       .  S
Fe46         O49   2.039       .  S
Fe46         O53   2.073       .  S
Fe46         O57   2.035       .  S
Fe46         O62   2.086       .  S
Fe46         O56   1.939       .  S
Fe47         O65   2.118       .  S
Fe47         O52   2.050       .  S
Fe47         O59   2.043       .  S
Fe47         O48   2.106       .  S
Fe47         O56   1.940       .  S
O48          C55   1.280       .  A
O49          C63   1.271       .  A
O50          C55   1.269       .  A
O51          C54   1.278       .  A
O52          C64   1.263       .  A
O53          C66   1.270       .  A
C54          O59   1.266       .  A
C54        C1069   1.484       .  S
C55        C1101   1.478       .  S
O57          C60   1.269       .  A
O58          C60   1.283       .  A
C60        C1079   1.481       .  S
O61          C66   1.270       .  A
O62          C64   1.269       .  A
C63          O65   1.283       .  A
C63        C1157   1.477       .  S
C64        C1189   1.483       .  S
C66        C1135   1.479       .  S
Fe67         O83   2.074       .  S
Fe67         O73   2.105       .  S
Fe67         O80   2.117       .  S
Fe67         O72   2.042       .  S
Fe67         O78   1.955       .  S
Fe68         O71   2.044       .  S
Fe68         O75   2.069       .  S
Fe68         O79   2.044       .  S
Fe68         O84   2.076       .  S
Fe68         O78   1.943       .  S
Fe69         O87   2.116       .  S
Fe69         O74   2.051       .  S
Fe69         O81   2.044       .  S
Fe69         O70   2.109   1_554  S
Fe69         O78   1.947       .  S
O70          C77   1.281       .  A
O71          C85   1.273       .  A
O72          C77   1.269   1_554  A
O73          C76   1.275       .  A
O74          C86   1.261       .  A
O75          C88   1.266       .  A
C76          O81   1.265       .  A
C76        C1013   1.480       .  S
C77        C1267   1.485       .  S
O79          C82   1.272       .  A
O80          C82   1.283       .  A
C82        C1387   1.476       .  S
O83          C88   1.267       .  A
O84          C86   1.265       .  A
C85          O87   1.285       .  A
C85        C1145   1.473       .  S
C86        C1035   1.481       .  S
C88        C1245   1.476       .  S
Fe89        O105   2.119       .  S
Fe89         O95   2.037   1_556  S
Fe89        O102   2.079       .  S
Fe89         O94   2.117       .  S
Fe89        O100   1.957       .  S
Fe90         O93   2.082       .  S
Fe90         O97   2.040       .  S
Fe90        O101   2.072       .  S
Fe90        O106   2.043       .  S
Fe90        O100   1.935       .  S
Fe91        O109   2.057   1_556  S
Fe91         O96   2.113       .  S
Fe91        O103   2.111   1_556  S
Fe91         O92   2.041       .  S
Fe91        O100   1.936       .  S
O92          C99   1.264       .  A
O93         C107   1.269       .  A
O94          C99   1.276       .  A
O95          C98   1.270       .  A
O96         C108   1.282       .  A
O97         C110   1.270       .  A
C98         O103   1.282       .  A
C98        C1123   1.475       .  S
C99         C947   1.486   1_556  S
O101        C104   1.269       .  A
O102        C104   1.272       .  A
C104       C1113   1.477       .  S
O105        C110   1.282       .  A
O106        C108   1.271       .  A
C107        O109   1.265   1_556  A
C107       C1003   1.487   1_556  S
C108        C969   1.478       .  S
C110       C1047   1.478       .  S
Fe111       O127   2.100       .  S
Fe111       O117   2.053       .  S
Fe111       O124   2.082       .  S
Fe111       O116   2.086       .  S
Fe111       O122   1.959       .  S
Fe112       O115   2.074       .  S
Fe112       O119   2.044       .  S
Fe112       O123   2.069       .  S
Fe112       O128   2.051       .  S
Fe112       O122   1.945       .  S
Fe113       O131   2.056       .  S
Fe113       O118   2.101       .  S
Fe113       O125   2.096       .  S
Fe113       O114   2.058       .  S
Fe113       O122   1.950       .  S
O114        C121   1.267       .  A
O115        C129   1.267       .  A
O116        C121   1.272       .  A
O117        C120   1.271       .  A
O118        C130   1.279       .  A
O119        C132   1.269       .  A
C120        O125   1.277       .  A
C120        C903   1.477       .  S
C121        C871   1.472       .  S
O123        C126   1.268       .  A
O124        C126   1.270       .  A
C126        C925   1.481       .  S
O127        C132   1.278       .  A
O128        C130   1.272       .  A
C129        O131   1.265       .  A
C129       C1091   1.480       .  S
C130        C981   1.470       .  S
C132        C881   1.471       .  S
Fe133       O149   2.069       .  S
Fe133       O139   2.098       .  S
Fe133       O146   2.104       .  S
Fe133       O138   2.040       .  S
Fe133       O144   1.953       .  S
Fe134       O137   2.048       .  S
Fe134       O141   2.072       .  S
Fe134       O145   2.030       .  S
Fe134       O150   2.082       .  S
Fe134       O144   1.934       .  S
Fe135       O153   2.112       .  S
Fe135       O140   2.044       .  S
Fe135       O147   2.037       .  S
Fe135       O136   2.110       .  S
Fe135       O144   1.932       .  S
O136        C143   1.279       .  A
O137        C151   1.270       .  A
O138        C143   1.268       .  A
O139        C142   1.273       .  A
O140        C152   1.263       .  A
O141        C154   1.269       .  A
C142        O147   1.264       .  A
C142        C815   1.468       .  S
C143       C1355   1.476       .  S
O145        C148   1.268       .  A
O146        C148   1.280       .  A
C148       C1223   1.474       .  S
O149        C154   1.268       .  A
O150        C152   1.270       .  A
C151        O153   1.281       .  A
C151        C837   1.476       .  S
C152        C893   1.476       .  S
C154       C1333   1.469       .  S
Fe155       O171   2.083       .  S
Fe155       O161   2.100       .  S
Fe155       O168   2.113       .  S
Fe155       O160   2.054       .  S
Fe155       O166   1.964       .  S
Fe156       O159   2.055       .  S
Fe156       O163   2.066       .  S
Fe156       O167   2.052       .  S
Fe156       O172   2.064       .  S
Fe156       O166   1.945       .  S
Fe157       O175   2.099       .  S
Fe157       O162   2.057       .  S
Fe157       O169   2.049       .  S
Fe157       O158   2.094   1_554  S
Fe157       O166   1.956       .  S
O158        C165   1.278       .  A
O159        C173   1.273       .  A
O160        C165   1.271   1_554  A
O161        C164   1.274       .  A
O162        C174   1.264       .  A
O163        C176   1.267       .  A
C164        O169   1.266       .  A
C164        C793   1.481       .  S
C165        C937   1.478       .  S
O167        C170   1.270       .  A
O168        C170   1.280       .  A
C170        C991   1.480       .  S
O171        C176   1.271       .  A
O172        C174   1.265       .  A
C173        O175   1.279       .  A
C173        C849   1.475       .  S
C174       C1311   1.476       .  S
C176        C915   1.482       .  S
Fe177       O193   2.078       .  S
Fe177       O183   2.063       .  S
Fe177       O190   2.080       .  S
Fe177       O182   2.099       .  S
Fe177       O188   1.980       .  S
Fe178       O181   2.068       .  S
Fe178       O185   2.061       .  S
Fe178       O189   2.045       .  S
Fe178       O194   2.063       .  S
Fe178       O188   1.969       .  S
Fe179       O197   2.045       .  S
Fe179       O184   2.093       .  S
Fe179       O191   2.085       .  S
Fe179       O180   2.035       .  S
Fe179       O188   1.967       .  S
O180        C187   1.262       .  A
O181        C195   1.265       .  A
O182        C187   1.273       .  A
O183        C186   1.271       .  A
O184        C196   1.278       .  A
O185        C198   1.269       .  A
C186        O191   1.278       .  A
C186        C717   1.488       .  S
C187        C859   1.478       .  S
O189        C192   1.266       .  A
O190        C192   1.271       .  A
C192        C727   1.478       .  S
O193        C198   1.273       .  A
O194        C196   1.272       .  A
C195        O197   1.261       .  A
C195        C783   1.482       .  S
C196        C749   1.472       .  S
C198        C683   1.475   1_455  S
Fe199       O215   2.118   1_545  S
Fe199       O205   2.037       .  S
Fe199       O212   2.068       .  S
Fe199       O204   2.105       .  S
Fe199       O210   1.957       .  S
Fe200       O203   2.076       .  S
Fe200       O207   2.039       .  S
Fe200       O211   2.073       .  S
Fe200       O216   2.043       .  S
Fe200       O210   1.947       .  S
Fe201       O219   2.052       .  S
Fe201       O206   2.119       .  S
Fe201       O213   2.105       .  S
Fe201       O202   2.043       .  S
Fe201       O210   1.945       .  S
O202        C209   1.266       .  A
O203        C217   1.266       .  A
O204        C209   1.275       .  A
O205        C208   1.268   1_554  A
O206        C218   1.284       .  A
O207        C220   1.270   1_545  A
C208        O213   1.280   1_556  A
C208        C639   1.476       .  S
C209        C959   1.486       .  S
O211        C214   1.267       .  A
O212        C214   1.267       .  A
C214        C673   1.469   1_545  S
O215        C220   1.282       .  A
O216        C218   1.273       .  A
C217        O219   1.263       .  A
C217        C629   1.484       .  S
C218        C761   1.484       .  S
C220        C595   1.482       .  S
Fe221       O237   2.077       .  S
Fe221       O227   2.111       .  S
Fe221       O234   2.111       .  S
Fe221       O226   2.040   1_556  S
Fe221       O232   1.956       .  S
Fe222       O225   2.044       .  S
Fe222       O229   2.079       .  S
Fe222       O233   2.037       .  S
Fe222       O238   2.089       .  S
Fe222       O232   1.943       .  S
Fe223       O241   2.112       .  S
Fe223       O228   2.042   1_556  S
Fe223       O235   2.036       .  S
Fe223       O224   2.101   1_556  S
Fe223       O232   1.940       .  S
O224        C231   1.279       .  A
O225        C239   1.272       .  A
O226        C231   1.268       .  A
O227        C230   1.276       .  A
O228        C240   1.261   1_554  A
O229        C242   1.270       .  A
C230        O235   1.264       .  A
C230        C805   1.479   1_556  S
C231        C563   1.473       .  S
O233        C236   1.269       .  A
O234        C236   1.281       .  A
C236        C519   1.478   1_455  S
O237        C242   1.270       .  A
O238        C240   1.268       .  A
C239        O241   1.282       .  A
C239        C541   1.479       .  S
C240        C607   1.478   1_556  S
C242        C585   1.480       .  S
Fe243       O259   2.070       .  S
Fe243       O249   2.091       .  S
Fe243       O256   2.105       .  S
Fe243       O248   2.040       .  S
Fe243       O254   1.957       .  S
Fe244       O247   2.051       .  S
Fe244       O251   2.069       .  S
Fe244       O255   2.041       .  S
Fe244       O260   2.071       .  S
Fe244       O254   1.941       .  S
Fe245       O263   2.105       .  S
Fe245       O250   2.050       .  S
Fe245       O257   2.040       .  S
Fe245       O246   2.098       .  S
Fe245       O254   1.948       .  S
O246        C253   1.278       .  A
O247        C261   1.273       .  A
O248        C253   1.268       .  A
O249        C252   1.273       .  A
O250        C262   1.263       .  A
O251        C264   1.267       .  A
C252        O257   1.266       .  A
C252        C827   1.472       .  S
C253        C661   1.483       .  S
O255        C258   1.271       .  A
O256        C258   1.280       .  A
C258        C771   1.478       .  S
O259        C264   1.266       .  A
O260        C262   1.266       .  A
C261        O263   1.280       .  A
C261        C529   1.472       .  S
C262        C485   1.473       .  S
C264        C651   1.474       .  S
Fe265       O281   2.111   1_655  S
Fe265       O271   2.046       .  S
Fe265       O278   2.081       .  S
Fe265       O270   2.100       .  S
Fe265       O276   1.964       .  S
Fe266       O269   2.069       .  S
Fe266       O273   2.039       .  S
Fe266       O277   2.060       .  S
Fe266       O282   2.046       .  S
Fe266       O276   1.947       .  S
Fe267       O285   2.057       .  S
Fe267       O272   2.118       .  S
Fe267       O279   2.109       .  S
Fe267       O268   2.047       .  S
Fe267       O276   1.945       .  S
O268        C275   1.266       .  A
O269        C283   1.264       .  A
O270        C275   1.273       .  A
O271        C274   1.271       .  A
O272        C284   1.285       .  A
O273        C286   1.269   1_655  A
C274        O279   1.281       .  A
C274        C573   1.481       .  S
C275       C1179   1.485       .  S
O277        C280   1.266       .  A
O278        C280   1.271       .  A
C280        C551   1.481   1_655  S
O281        C286   1.280       .  A
O282        C284   1.273       .  A
C283        O285   1.263       .  A
C283        C463   1.485       .  S
C284        C441   1.485       .  S
C286        C497   1.479       .  S
Fe287       O303   2.073       .  S
Fe287       O293   2.065       .  S
Fe287       O300   2.084       .  S
Fe287       O292   2.086       .  S
Fe287       O298   1.967       .  S
Fe288       O291   2.071       .  S
Fe288       O295   2.066       .  S
Fe288       O299   2.055       .  S
Fe288       O304   2.060       .  S
Fe288       O298   1.955       .  S
Fe289       O307   2.053       .  S
Fe289       O294   2.087       .  S
Fe289       O301   2.078   1_554  S
Fe289       O290   2.055       .  S
Fe289       O298   1.955       .  S
O290        C297   1.266       .  A
O291        C305   1.269       .  A
O292        C297   1.273       .  A
O293        C296   1.269   1_554  A
O294        C306   1.276       .  A
O295        C308   1.270       .  A
C296        O301   1.274       .  A
C296        C409   1.478       .  S
C297       C1277   1.470       .  S
O299        C302   1.268       .  A
O300        C302   1.271       .  A
C302        C419   1.475       .  S
O303        C308   1.271       .  A
O304        C306   1.270       .  A
C305        O307   1.265       .  A
C305        C507   1.482       .  S
C306        C453   1.469       .  S
C308        C375   1.473       .  S
Fe309       O325   2.073       .  S
Fe309       O315   2.111       .  S
Fe309       O322   2.113   1_655  S
Fe309       O314   2.033   1_556  S
Fe309       O320   1.945       .  S
Fe310       O313   2.046       .  S
Fe310       O317   2.071       .  S
Fe310       O321   2.052       .  S
Fe310       O326   2.079       .  S
Fe310       O320   1.939       .  S
Fe311       O329   2.118   1_554  S
Fe311       O316   2.056       .  S
Fe311       O323   2.040   1_554  S
Fe311       O312   2.099       .  S
Fe311       O320   1.941   1_554  S
O312        C319   1.276       .  A
O313        C327   1.274       .  A
O314        C319   1.267       .  A
O315        C318   1.278       .  A
O316        C328   1.261   1_554  A
O317        C330   1.267       .  A
C318        O323   1.267       .  A
C318       C1025   1.482   1_556  S
C319        C739   1.472       .  S
O321        C324   1.273   1_655  A
O322        C324   1.282       .  A
C324        C617   1.475       .  S
O325        C330   1.267       .  A
O326        C328   1.266       .  A
C327        O329   1.285       .  A
C327        C353   1.473       .  S
C328        C387   1.480   1_556  S
C330        C705   1.471       .  S
Fe331       O347   2.074       .  S
Fe331       O337   2.107       .  S
Fe331       O344   2.118   1_545  S
Fe331       O336   2.031       .  S
Fe331       O342   1.948       .  S
Fe332       O335   2.029       .  S
Fe332       O339   2.060       .  S
Fe332       O343   2.048       .  S
Fe332       O348   2.064       .  S
Fe332       O342   1.937       .  S
Fe333       O351   2.132       .  S
Fe333       O338   2.070       .  S
Fe333       O345   2.052       .  S
Fe333       O334   2.116       .  S
Fe333       O342   1.948       .  S
O334        C341   1.282       .  A
O335        C349   1.272       .  A
O336        C341   1.268       .  A
O337        C340   1.276       .  A
O338        C350   1.263       .  A
O339        C352   1.265       .  A
C340        O345   1.267       .  A
C340       C1057   1.484       .  S
C341        C431   1.488       .  S
O343        C346   1.273   1_545  A
O344        C346   1.284       .  A
C346        C475   1.479       .  S
O347        C352   1.267       .  A
O348        C350   1.263       .  A
C349        O351   1.288       .  A
C349        C365   1.480       .  S
C350        C695   1.478       .  S
C352        C397   1.478   1_545  S
C353        C354   1.400       .  A
C353        C358   1.398       .  A
C354        C355   1.398       .  A
C354        H367   1.084       .  S
C355        C356   1.415       .  A
C355        H368   1.078       .  S
C356        C362   1.432       .  A
C356        C357   1.425       .  A
C357        C359   1.398       .  A
C357        C358   1.405       .  A
C358        H369   1.085       .  S
C359        C360   1.388       .  A
C359        H370   1.084       .  S
C360        C361   1.399       .  A
C360        H371   1.084       .  S
C361        C362   1.420       .  A
C361        C366   1.400       .  A
C362        C363   1.419       .  A
C363        C364   1.403       .  A
C363        H372   1.078       .  S
C364        C365   1.399       .  A
C364        H373   1.083       .  S
C365        C366   1.403       .  A
C366        H374   1.085       .  S
C375        C376   1.399   1_565  A
C375        C380   1.400   1_565  A
C376        C377   1.399       .  A
C376        H389   1.083   1_544  S
C377        C378   1.417       .  A
C377        H390   1.078   1_554  S
C378        C384   1.429       .  A
C378        C379   1.421       .  A
C379        C381   1.400       .  A
C379        C380   1.403       .  A
C380        H391   1.085       .  S
C381        C382   1.390       .  A
C381        H392   1.084       .  S
C382        C383   1.399       .  A
C382        H393   1.084       .  S
C383        C384   1.423       .  A
C383        C388   1.406       .  A
C384        C385   1.413   1_554  A
C385        C386   1.396       .  A
C385        H394   1.078       .  S
C386        C387   1.402   1_556  A
C386        H395   1.083       .  S
C387        C388   1.402       .  A
C388        H396   1.084       .  S
C397        C398   1.399       .  A
C397        C402   1.402       .  A
C398        C399   1.403       .  A
C398        H411   1.083   1_565  S
C399        C400   1.420       .  A
C399        H412   1.076       .  S
C400        C406   1.431       .  A
C400        C401   1.420       .  A
C401        C403   1.399       .  A
C401        C402   1.397       .  A
C402        H413   1.085       .  S
C403        C404   1.386       .  A
C403        H414   1.084       .  S
C404        C405   1.397       .  A
C404        H415   1.084       .  S
C405        C406   1.425       .  A
C405        C410   1.404       .  A
C406        C407   1.413       .  A
C407        C408   1.397       .  A
C407        H416   1.077       .  S
C408        C409   1.404       .  A
C408        H417   1.084       .  S
C409        C410   1.397       .  A
C410        H418   1.084       .  S
C419        C420   1.402       .  A
C419        C424   1.396       .  A
C420        C421   1.402   1_565  A
C420        H433   1.083   1_565  S
C421        C422   1.415   1_545  A
C421        H434   1.078       .  S
C422        C428   1.434   1_565  A
C422        C423   1.425       .  A
C423        C425   1.396       .  A
C423        C424   1.402       .  A
C424        H435   1.085       .  S
C425        C426   1.385       .  A
C425        H436   1.084       .  S
C426        C427   1.399       .  A
C426        H437   1.084       .  S
C427        C428   1.420   1_565  A
C427        C432   1.397       .  A
C428        C429   1.420       .  A
C429        C430   1.407       .  A
C429        H438   1.078       .  S
C430        C431   1.401       .  A
C430        H439   1.083       .  S
C431        C432   1.405   1_545  A
C432        H440   1.085       .  S
C441        C442   1.400       .  A
C441        C446   1.404       .  A
C442        C443   1.402       .  A
C442        H455   1.083       .  S
C443        C444   1.417       .  A
C443        H456   1.078       .  S
C444        C450   1.434       .  A
C444        C445   1.422       .  A
C445        C447   1.400       .  A
C445        C446   1.405       .  A
C446        H457   1.085       .  S
C447        C448   1.389       .  A
C447        H458   1.084       .  S
C448        C449   1.399       .  A
C448        H459   1.084       .  S
C449        C450   1.423       .  A
C449        C454   1.404       .  A
C450        C451   1.418       .  A
C451        C452   1.402       .  A
C451        H460   1.078       .  S
C452        C453   1.398       .  A
C452        H461   1.083       .  S
C453        C454   1.399       .  A
C454        H462   1.086       .  S
C463        C464   1.402       .  A
C463        C468   1.404       .  A
C464        C465   1.397       .  A
C464        H477   1.083       .  S
C465        C466   1.414       .  A
C465        H478   1.077       .  S
C466        C472   1.431       .  A
C466        C467   1.422       .  A
C467        C469   1.400       .  A
C467        C468   1.407       .  A
C468        H479   1.084       .  S
C469        C470   1.391       .  A
C469        H480   1.084       .  S
C470        C471   1.400       .  A
C470        H481   1.084       .  S
C471        C472   1.422       .  A
C471        C476   1.406       .  A
C472        C473   1.416       .  A
C473        C474   1.398       .  A
C473        H482   1.077       .  S
C474        C475   1.399       .  A
C474        H483   1.084       .  S
C475        C476   1.402       .  A
C476        H484   1.085       .  S
C485        C486   1.400       .  A
C485        C490   1.399       .  A
C486        C487   1.397       .  A
C486        H499   1.083       .  S
C487        C488   1.414       .  A
C487        H500   1.079       .  S
C488        C494   1.429       .  A
C488        C489   1.424       .  A
C489        C491   1.398       .  A
C489        C490   1.403       .  A
C490        H501   1.085       .  S
C491        C492   1.388       .  A
C491        H502   1.084       .  S
C492        C493   1.399       .  A
C492        H503   1.084       .  S
C493        C494   1.421       .  A
C493        C498   1.401       .  A
C494        C495   1.417       .  A
C495        C496   1.399       .  A
C495        H504   1.079       .  S
C496        C497   1.400       .  A
C496        H505   1.083       .  S
C497        C498   1.402       .  A
C498        H506   1.085       .  S
C507        C508   1.400       .  A
C507        C512   1.404       .  A
C508        C509   1.399       .  A
C508        H521   1.083       .  S
C509        C510   1.418       .  A
C509        H522   1.077       .  S
C510        C516   1.430       .  A
C510        C511   1.420       .  A
C511        C513   1.400   1_554  A
C511        C512   1.400       .  A
C512        H523   1.084       .  S
C513        C514   1.388       .  A
C513        H524   1.084       .  S
C514        C515   1.398       .  A
C514        H525   1.084       .  S
C515        C516   1.424   1_556  A
C515        C520   1.404       .  A
C516        C517   1.413       .  A
C517        C518   1.395   1_554  A
C517        H526   1.077       .  S
C518        C519   1.402       .  A
C518        H527   1.083   1_656  S
C519        C520   1.399       .  A
C520        H528   1.085       .  S
C529        C530   1.398       .  A
C529        C534   1.399       .  A
C530        C531   1.397       .  A
C530        H543   1.084       .  S
C531        C532   1.415       .  A
C531        H544   1.077       .  S
C532        C538   1.430       .  A
C532        C533   1.424       .  A
C533        C535   1.399       .  A
C533        C534   1.405       .  A
C534        H545   1.085       .  S
C535        C536   1.390       .  A
C535        H546   1.084       .  S
C536        C537   1.400       .  A
C536        H547   1.084       .  S
C537        C538   1.421       .  A
C537        C542   1.403       .  A
C538        C539   1.416       .  A
C539        C540   1.399       .  A
C539        H548   1.078       .  S
C540        C541   1.400       .  A
C540        H549   1.083       .  S
C541        C542   1.403       .  A
C542        H550   1.085       .  S
C551        C552   1.399       .  A
C551        C556   1.404       .  A
C552        C553   1.402       .  A
C552        H565   1.083   1_455  S
C553        C554   1.419       .  A
C553        H566   1.079       .  S
C554        C560   1.431       .  A
C554        C555   1.419       .  A
C555        C557   1.400       .  A
C555        C556   1.400       .  A
C556        H567   1.085       .  S
C557        C558   1.388       .  A
C557        H568   1.084       .  S
C558        C559   1.398       .  A
C558        H569   1.084       .  S
C559        C560   1.426       .  A
C559        C564   1.407       .  A
C560        C561   1.412       .  A
C561        C562   1.395       .  A
C561        H570   1.079       .  S
C562        C563   1.401       .  A
C562        H571   1.083       .  S
C563        C564   1.397       .  A
C564        H572   1.085       .  S
C573        C574   1.403       .  A
C573        C578   1.399       .  A
C574        C575   1.397       .  A
C574        H587   1.083       .  S
C575        C576   1.412       .  A
C575        H588   1.082   1_655  S
C576        C582   1.434       .  A
C576        C577   1.426       .  A
C577        C579   1.398       .  A
C577        C578   1.409       .  A
C578        H589   1.086       .  S
C579        C580   1.390       .  A
C579        H590   1.084       .  S
C580        C581   1.400       .  A
C580        H591   1.084       .  S
C581        C582   1.420       .  A
C581        C586   1.403   1_655  A
C582        C583   1.420   1_655  A
C583        C584   1.404       .  A
C583        H592   1.082       .  S
C584        C585   1.399       .  A
C584        H593   1.082       .  S
C585        C586   1.402       .  A
C586        H594   1.086   1_455  S
C595        C596   1.400       .  A
C595        C600   1.404       .  A
C596        C597   1.399       .  A
C596        H609   1.083       .  S
C597        C598   1.417       .  A
C597        H610   1.078       .  S
C598        C604   1.430       .  A
C598        C599   1.420       .  A
C599        C601   1.401       .  A
C599        C600   1.404       .  A
C600        H611   1.085       .  S
C601        C602   1.391   1_554  A
C601        H612   1.084       .  S
C602        C603   1.399   1_556  A
C602        H613   1.084       .  S
C603        C604   1.424       .  A
C603        C608   1.408   1_554  A
C604        C605   1.412       .  A
C605        C606   1.394       .  A
C605        H614   1.078       .  S
C606        C607   1.401       .  A
C606        H615   1.084       .  S
C607        C608   1.400   1_554  A
C608        H616   1.084       .  S
C617        C618   1.398       .  A
C617        C622   1.401   1_556  A
C618        C619   1.398       .  A
C618        H631   1.083       .  S
C619        C620   1.416   1_556  A
C619        H632   1.077       .  S
C620        C626   1.430       .  A
C620        C621   1.422       .  A
C621        C623   1.400       .  A
C621        C622   1.405       .  A
C622        H633   1.085       .  S
C623        C624   1.391       .  A
C623        H634   1.084       .  S
C624        C625   1.400       .  A
C624        H635   1.084       .  S
C625        C626   1.423       .  A
C625        C630   1.407       .  A
C626        C627   1.414   1_554  A
C627        C628   1.396   1_556  A
C627        H636   1.077       .  S
C628        C629   1.402       .  A
C628        H637   1.083   1_554  S
C629        C630   1.403       .  A
C630        H638   1.084       .  S
C639        C640   1.402       .  A
C639        C644   1.397       .  A
C640        C641   1.395       .  A
C640        H653   1.084       .  S
C641        C642   1.412       .  A
C641        H654   1.076   1_545  S
C642        C648   1.431   1_545  A
C642        C643   1.426       .  A
C643        C645   1.398       .  A
C643        C644   1.407       .  A
C644        H655   1.084       .  S
C645        C646   1.388       .  A
C645        H656   1.084       .  S
C646        C647   1.399       .  A
C646        H657   1.084       .  S
C647        C648   1.420   1_545  A
C647        C652   1.400   1_545  A
C648        C649   1.420       .  A
C649        C650   1.402       .  A
C649        H658   1.076       .  S
C650        C651   1.398       .  A
C650        H659   1.083       .  S
C651        C652   1.400       .  A
C652        H660   1.085       .  S
C661        C662   1.399       .  A
C661        C666   1.405       .  A
C662        C663   1.400       .  A
C662        H675   1.083       .  S
C663        C664   1.418       .  A
C663        H676   1.077       .  S
C664        C670   1.431       .  A
C664        C665   1.420       .  A
C665        C667   1.400       .  A
C665        C666   1.402       .  A
C666        H677   1.085       .  S
C667        C668   1.389   1_565  A
C667        H678   1.084   1_565  S
C668        C669   1.398   1_545  A
C668        H679   1.084       .  S
C669        C670   1.426       .  A
C669        C674   1.407   1_565  A
C670        C671   1.413       .  A
C671        C672   1.395       .  A
C671        H680   1.077       .  S
C672        C673   1.398       .  A
C672        H681   1.084       .  S
C673        C674   1.397   1_565  A
C674        H682   1.085       .  S
C683        C684   1.398       .  A
C683        C688   1.402       .  A
C684        C685   1.397       .  A
C684        H697   1.084       .  S
C685        C686   1.417       .  A
C685        H698   1.077       .  S
C686        C692   1.429       .  A
C686        C687   1.421       .  A
C687        C689   1.401       .  A
C687        C688   1.406       .  A
C688        H699   1.084       .  S
C689        C690   1.393       .  A
C689        H700   1.084       .  S
C690        C691   1.400       .  A
C690        H701   1.084       .  S
C691        C692   1.424       .  A
C691        C696   1.410       .  A
C692        C693   1.412       .  A
C693        C694   1.393       .  A
C693        H702   1.078       .  S
C694        C695   1.401       .  A
C694        H703   1.084       .  S
C695        C696   1.401       .  A
C696        H704   1.084       .  S
C705        C706   1.399   1_655  A
C705        C710   1.398       .  A
C706        C707   1.393       .  A
C706        H719   1.084       .  S
C707        C708   1.412       .  A
C707        H720   1.078       .  S
C708        C714   1.431       .  A
C708        C709   1.426       .  A
C709        C711   1.399   1_455  A
C709        C710   1.410   1_455  A
C710        H721   1.085       .  S
C711        C712   1.391   1_655  A
C711        H722   1.084       .  S
C712        C713   1.401       .  A
C712        H723   1.084   1_455  S
C713        C714   1.419       .  A
C713        C718   1.404       .  A
C714        C715   1.418       .  A
C715        C716   1.400       .  A
C715        H724   1.078       .  S
C716        C717   1.400       .  A
C716        H725   1.083       .  S
C717        C718   1.408       .  A
C718        H726   1.084       .  S
C727        C728   1.402       .  A
C727        C732   1.399       .  A
C728        C729   1.402   1_455  A
C728        H741   1.083       .  S
C729        C730   1.416   1_655  A
C729        H742   1.079       .  S
C730        C736   1.431   1_455  A
C730        C731   1.423       .  A
C731        C733   1.397       .  A
C731        C732   1.400       .  A
C732        H743   1.085       .  S
C733        C734   1.385       .  A
C733        H744   1.084       .  S
C734        C735   1.398       .  A
C734        H745   1.085       .  S
C735        C736   1.421   1_455  A
C735        C740   1.396   1_455  A
C736        C737   1.419       .  A
C737        C738   1.404       .  A
C737        H746   1.079       .  S
C738        C739   1.399       .  A
C738        H747   1.083       .  S
C739        C740   1.398       .  A
C740        H748   1.086   1_655  S
C749        C750   1.399       .  A
C749        C754   1.398       .  A
C750        C751   1.402       .  A
C750        H763   1.084       .  S
C751        C752   1.417       .  A
C751        H764   1.078       .  S
C752        C758   1.435       .  A
C752        C753   1.424       .  A
C753        C755   1.399       .  A
C753        C754   1.406       .  A
C754        H765   1.086       .  S
C755        C756   1.388       .  A
C755        H766   1.084       .  S
C756        C757   1.399       .  A
C756        H767   1.084       .  S
C757        C758   1.421       .  A
C757        C762   1.402       .  A
C758        C759   1.419       .  A
C759        C760   1.404       .  A
C759        H768   1.078       .  S
C760        C761   1.401       .  A
C760        H769   1.083       .  S
C761        C762   1.402       .  A
C762        H770   1.085       .  S
C771        C772   1.401       .  A
C771        C776   1.400   1_565  A
C772        C773   1.394   1_565  A
C772        H785   1.083       .  S
C773        C774   1.413       .  A
C773        H786   1.077       .  S
C774        C780   1.429       .  A
C774        C775   1.424       .  A
C775        C777   1.398       .  A
C775        C776   1.405       .  A
C776        H787   1.085       .  S
C777        C778   1.388       .  A
C777        H788   1.084       .  S
C778        C779   1.400       .  A
C778        H789   1.084       .  S
C779        C780   1.420       .  A
C779        C784   1.401       .  A
C780        C781   1.417       .  A
C781        C782   1.399       .  A
C781        H790   1.077       .  S
C782        C783   1.400       .  A
C782        H791   1.083       .  S
C783        C784   1.404       .  A
C784        H792   1.084       .  S
C793        C794   1.401       .  A
C793        C798   1.401       .  A
C794        C795   1.403       .  A
C794        H807   1.083       .  S
C795        C796   1.416       .  A
C795        H808   1.078       .  S
C796        C802   1.437       .  A
C796        C797   1.425       .  A
C797        C799   1.398       .  A
C797        C798   1.406       .  A
C798        H809   1.085       .  S
C799        C800   1.387       .  A
C799        H810   1.084       .  S
C800        C801   1.399       .  A
C800        H811   1.084       .  S
C801        C802   1.421       .  A
C801        C806   1.400       .  A
C802        C803   1.423   1_554  A
C803        C804   1.409       .  A
C803        H812   1.078       .  S
C804        C805   1.398   1_556  A
C804        H813   1.083       .  S
C805        C806   1.401       .  A
C806        H814   1.086       .  S
C815        C816   1.397       .  A
C815        C820   1.396       .  A
C816        C817   1.407       .  A
C816        H829   1.083       .  S
C817        C818   1.422       .  A
C817        H830   1.079       .  S
C818        C824   1.432       .  A
C818        C819   1.421       .  A
C819        C821   1.397       .  A
C819        C820   1.393       .  A
C820        H831   1.086       .  S
C821        C822   1.383       .  A
C821        H832   1.084       .  S
C822        C823   1.396       .  A
C822        H833   1.084       .  S
C823        C824   1.424       .  A
C823        C828   1.399       .  A
C824        C825   1.416       .  A
C825        C826   1.402       .  A
C825        H834   1.079       .  S
C826        C827   1.400       .  A
C826        H835   1.083       .  S
C827        C828   1.397       .  A
C828        H836   1.086       .  S
C837        C838   1.399       .  A
C837        C842   1.402       .  A
C838        C839   1.397       .  A
C838        H851   1.084       .  S
C839        C840   1.416       .  A
C839        H852   1.077       .  S
C840        C846   1.430       .  A
C840        C841   1.422       .  A
C841        C843   1.400       .  A
C841        C842   1.406       .  A
C842        H853   1.085       .  S
C843        C844   1.392       .  A
C843        H854   1.084       .  S
C844        C845   1.400       .  A
C844        H855   1.084       .  S
C845        C846   1.424       .  A
C845        C850   1.407       .  A
C846        C847   1.415       .  A
C847        C848   1.396       .  A
C847        H856   1.077       .  S
C848        C849   1.399       .  A
C848        H857   1.084       .  S
C849        C850   1.401       .  A
C850        H858   1.085       .  S
C859        C860   1.398       .  A
C859        C864   1.403       .  A
C860        C861   1.408       .  A
C860        H873   1.083       .  S
C861        C862   1.422       .  A
C861        H874   1.078       .  S
C862        C868   1.434       .  A
C862        C863   1.419       .  A
C863        C865   1.400       .  A
C863        C864   1.399       .  A
C864        H875   1.086       .  S
C865        C866   1.388       .  A
C865        H876   1.084       .  S
C866        C867   1.398       .  A
C866        H877   1.084       .  S
C867        C868   1.426       .  A
C867        C872   1.407       .  A
C868        C869   1.413       .  A
C869        C870   1.399       .  A
C869        H878   1.079       .  S
C870        C871   1.400       .  A
C870        H879   1.084       .  S
C871        C872   1.397       .  A
C872        H880   1.085       .  S
C881        C882   1.398       .  A
C881        C886   1.401       .  A
C882        C883   1.395       .  A
C882        H895   1.084       .  S
C883        C884   1.415       .  A
C883        H896   1.078       .  S
C884        C890   1.425       .  A
C884        C885   1.421       .  A
C885        C887   1.400       .  A
C885        C886   1.403       .  A
C886        H897   1.085       .  S
C887        C888   1.391       .  A
C887        H898   1.084       .  S
C888        C889   1.399       .  A
C888        H899   1.084       .  S
C889        C890   1.422       .  A
C889        C894   1.404       .  A
C890        C891   1.412       .  A
C891        C892   1.394       .  A
C891        H900   1.078       .  S
C892        C893   1.401       .  A
C892        H901   1.083       .  S
C893        C894   1.401       .  A
C894        H902   1.084       .  S
C903        C904   1.398       .  A
C903        C908   1.403       .  A
C904        C905   1.399       .  A
C904        H917   1.084       .  S
C905        C906   1.418       .  A
C905        H918   1.077       .  S
C906        C912   1.431       .  A
C906        C907   1.420       .  A
C907        C909   1.401       .  A
C907        C908   1.406       .  A
C908        H919   1.085       .  S
C909        C910   1.392       .  A
C909        H920   1.084       .  S
C910        C911   1.400       .  A
C910        H921   1.084       .  S
C911        C912   1.426       .  A
C911        C916   1.412       .  A
C912        C913   1.411       .  A
C913        C914   1.393       .  A
C913        H922   1.077       .  S
C914        C915   1.402       .  A
C914        H923   1.084       .  S
C915        C916   1.401       .  A
C916        H924   1.084       .  S
C925        C926   1.401       .  A
C925        C930   1.401       .  A
C926        C927   1.393       .  A
C926        H939   1.084       .  S
C927        C928   1.411       .  A
C927        H940   1.077       .  S
C928        C934   1.431       .  A
C928        C929   1.426       .  A
C929        C931   1.400       .  A
C929        C930   1.413       .  A
C930        H941   1.084       .  S
C931        C932   1.393       .  A
C931        H942   1.084       .  S
C932        C933   1.401       .  A
C932        H943   1.084       .  S
C933        C934   1.420       .  A
C933        C938   1.407       .  A
C934        C935   1.417       .  A
C935        C936   1.398       .  A
C935        H944   1.077       .  S
C936        C937   1.398       .  A
C936        H945   1.084       .  S
C937        C938   1.404       .  A
C938        H946   1.084       .  S
C947        C948   1.402   1_554  A
C947        C952   1.401       .  A
C948        C949   1.413   1_556  A
C948        H961   1.083       .  S
C949        C950   1.423       .  A
C949        H962   1.078   1_554  S
C950        C956   1.439       .  A
C950        C951   1.421       .  A
C951        C953   1.398       .  A
C951        C952   1.398       .  A
C952        H963   1.086       .  S
C953        C954   1.384       .  A
C953        H964   1.084       .  S
C954        C955   1.397       .  A
C954        H965   1.084       .  S
C955        C956   1.424       .  A
C955        C960   1.402       .  A
C956        C957   1.418       .  A
C957        C958   1.408       .  A
C957        H966   1.079       .  S
C958        C959   1.404       .  A
C958        H967   1.083       .  S
C959        C960   1.400       .  A
C960        H968   1.085       .  S
C969        C970   1.399       .  A
C969        C974   1.402       .  A
C970        C971   1.400       .  A
C970        H983   1.084       .  S
C971        C972   1.417       .  A
C971        H984   1.076       .  S
C972        C978   1.431       .  A
C972        C973   1.422       .  A
C973        C975   1.399       .  A
C973        C974   1.403       .  A
C974        H985   1.084       .  S
C975        C976   1.389       .  A
C975        H986   1.084       .  S
C976        C977   1.399       .  A
C976        H987   1.084       .  S
C977        C978   1.424       .  A
C977        C982   1.404       .  A
C978        C979   1.416       .  A
C979        C980   1.398       .  A
C979        H988   1.076       .  S
C980        C981   1.398       .  A
C980        H989   1.084       .  S
C981        C982   1.398       .  A
C982        H990   1.085       .  S
C991        C992   1.400       .  A
C991        C996   1.402       .  A
C992        C993   1.400       .  A
C992       H1005   1.084       .  S
C993        C994   1.416       .  A
C993       H1006   1.077       .  S
C994       C1000   1.432       .  A
C994        C995   1.422       .  A
C995        C997   1.400   1_554  A
C995        C996   1.407       .  A
C996       H1007   1.085       .  S
C997        C998   1.391       .  A
C997       H1008   1.084       .  S
C998        C999   1.400   1_556  A
C998       H1009   1.084       .  S
C999       C1000   1.422       .  A
C999       C1004   1.407   1_554  A
C1000      C1001   1.415       .  A
C1001      C1002   1.399       .  A
C1001      H1010   1.078       .  S
C1002      C1003   1.403       .  A
C1002      H1011   1.083       .  S
C1003      C1004   1.404   1_554  A
C1004      H1012   1.084       .  S
C1013      C1014   1.401       .  A
C1013      C1018   1.400       .  A
C1014      C1015   1.405       .  A
C1014      H1027   1.083       .  S
C1015      C1016   1.417       .  A
C1015      H1028   1.078       .  S
C1016      C1022   1.437       .  A
C1016      C1017   1.425       .  A
C1017      C1019   1.398       .  A
C1017      C1018   1.405       .  A
C1018      H1029   1.085       .  S
C1019      C1020   1.387       .  A
C1019      H1030   1.084       .  S
C1020      C1021   1.399       .  A
C1020      H1031   1.084       .  S
C1021      C1022   1.421       .  A
C1021      C1026   1.400       .  A
C1022      C1023   1.422       .  A
C1023      C1024   1.409   1_554  A
C1023      H1032   1.078   1_554  S
C1024      C1025   1.399   1_556  A
C1024      H1033   1.083       .  S
C1025      C1026   1.402       .  A
C1026      H1034   1.085       .  S
C1035      C1036   1.402       .  A
C1035      C1040   1.401       .  A
C1036      C1037   1.398       .  A
C1036      H1049   1.083   1_554  S
C1037      C1038   1.414       .  A
C1037      H1050   1.079   1_554  S
C1038      C1044   1.432       .  A
C1038      C1039   1.424       .  A
C1039      C1041   1.399       .  A
C1039      C1040   1.405       .  A
C1040      H1051   1.085       .  S
C1041      C1042   1.389       .  A
C1041      H1052   1.084       .  S
C1042      C1043   1.399       .  A
C1042      H1053   1.084       .  S
C1043      C1044   1.422       .  A
C1043      C1048   1.403       .  A
C1044      C1045   1.417   1_554  A
C1045      C1046   1.400       .  A
C1045      H1054   1.079       .  S
C1046      C1047   1.399       .  A
C1046      H1055   1.083       .  S
C1047      C1048   1.401   1_556  A
C1048      H1056   1.085       .  S
C1057      C1058   1.402       .  A
C1057      C1062   1.400       .  A
C1058      C1059   1.407       .  A
C1058      H1071   1.083       .  S
C1059      C1060   1.417       .  A
C1059      H1072   1.079       .  S
C1060      C1066   1.440       .  A
C1060      C1061   1.425       .  A
C1061      C1063   1.398       .  A
C1061      C1062   1.406       .  A
C1062      H1073   1.085       .  S
C1063      C1064   1.387       .  A
C1063      H1074   1.084       .  S
C1064      C1065   1.399       .  A
C1064      H1075   1.084       .  S
C1065      C1066   1.421       .  A
C1065      C1070   1.402       .  A
C1066      C1067   1.423       .  A
C1067      C1068   1.412       .  A
C1067      H1076   1.078       .  S
C1068      C1069   1.400       .  A
C1068      H1077   1.083       .  S
C1069      C1070   1.401       .  A
C1070      H1078   1.086       .  S
C1079      C1080   1.402       .  A
C1079      C1084   1.401       .  A
C1080      C1081   1.394       .  A
C1080      H1093   1.084       .  S
C1081      C1082   1.412       .  A
C1081      H1094   1.076       .  S
C1082      C1088   1.430       .  A
C1082      C1083   1.424       .  A
C1083      C1085   1.399       .  A
C1083      C1084   1.409       .  A
C1084      H1095   1.084       .  S
C1085      C1086   1.391       .  A
C1085      H1096   1.084       .  S
C1086      C1087   1.400       .  A
C1086      H1097   1.084       .  S
C1087      C1088   1.421       .  A
C1087      C1092   1.405       .  A
C1088      C1089   1.417       .  A
C1089      C1090   1.397       .  A
C1089      H1098   1.076       .  S
C1090      C1091   1.400       .  A
C1090      H1099   1.084       .  S
C1091      C1092   1.402       .  A
C1092      H1100   1.084       .  S
C1101      C1102   1.402       .  A
C1101      C1106   1.399       .  A
C1102      C1103   1.394       .  A
C1102      H1115   1.084       .  S
C1103      C1104   1.411       .  A
C1103      H1116   1.077       .  S
C1104      C1110   1.431       .  A
C1104      C1105   1.426       .  A
C1105      C1107   1.398       .  A
C1105      C1106   1.409       .  A
C1106      H1117   1.084       .  S
C1107      C1108   1.390       .  A
C1107      H1118   1.084       .  S
C1108      C1109   1.400       .  A
C1108      H1119   1.084       .  S
C1109      C1110   1.419       .  A
C1109      C1114   1.402       .  A
C1110      C1111   1.420       .  A
C1111      C1112   1.402       .  A
C1111      H1120   1.077       .  S
C1112      C1113   1.397       .  A
C1112      H1121   1.083       .  S
C1113      C1114   1.403       .  A
C1114      H1122   1.085       .  S
C1123      C1124   1.402       .  A
C1123      C1128   1.396       .  A
C1124      C1125   1.397       .  A
C1124      H1137   1.084       .  S
C1125      C1126   1.413       .  A
C1125      H1138   1.077       .  S
C1126      C1132   1.433       .  A
C1126      C1127   1.427       .  A
C1127      C1129   1.397       .  A
C1127      C1128   1.407       .  A
C1128      H1139   1.085       .  S
C1129      C1130   1.388       .  A
C1129      H1140   1.084       .  S
C1130      C1131   1.399       .  A
C1130      H1141   1.084       .  S
C1131      C1132   1.420       .  A
C1131      C1136   1.400       .  A
C1132      C1133   1.421       .  A
C1133      C1134   1.405       .  A
C1133      H1142   1.077       .  S
C1134      C1135   1.399       .  A
C1134      H1143   1.083       .  S
C1135      C1136   1.401       .  A
C1136      H1144   1.085       .  S
C1145      C1146   1.400       .  A
C1145      C1150   1.398       .  A
C1146      C1147   1.397       .  A
C1146      H1159   1.084       .  S
C1147      C1148   1.415       .  A
C1147      H1160   1.076       .  S
C1148      C1154   1.431       .  A
C1148      C1149   1.425       .  A
C1149      C1151   1.399       .  A
C1149      C1150   1.406       .  A
C1150      H1161   1.085       .  S
C1151      C1152   1.389       .  A
C1151      H1162   1.084       .  S
C1152      C1153   1.399       .  A
C1152      H1163   1.084       .  S
C1153      C1154   1.422       .  A
C1153      C1158   1.403       .  A
C1154      C1155   1.417       .  A
C1155      C1156   1.400       .  A
C1155      H1164   1.076       .  S
C1156      C1157   1.399       .  A
C1156      H1165   1.084       .  S
C1157      C1158   1.402       .  A
C1158      H1166   1.085       .  S
C1167      C1168   1.401       .  A
C1167      C1172   1.401       .  A
C1168      C1169   1.413       .  A
C1168      H1181   1.083       .  S
C1169      C1170   1.423       .  A
C1169      H1182   1.079       .  S
C1170      C1176   1.439       .  A
C1170      C1171   1.421       .  A
C1171      C1173   1.398       .  A
C1171      C1172   1.398       .  A
C1172      H1183   1.086       .  S
C1173      C1174   1.384       .  A
C1173      H1184   1.084       .  S
C1174      C1175   1.397       .  A
C1174      H1185   1.084       .  S
C1175      C1176   1.425       .  A
C1175      C1180   1.403       .  A
C1176      C1177   1.417       .  A
C1177      C1178   1.408       .  A
C1177      H1186   1.079       .  S
C1178      C1179   1.404       .  A
C1178      H1187   1.083       .  S
C1179      C1180   1.399       .  A
C1180      H1188   1.086       .  S
C1189      C1190   1.403       .  A
C1189      C1194   1.402       .  A
C1190      C1191   1.397       .  A
C1190      H1203   1.083       .  S
C1191      C1192   1.413       .  A
C1191      H1204   1.078       .  S
C1192      C1198   1.431       .  A
C1192      C1193   1.423       .  A
C1193      C1195   1.399       .  A
C1193      C1194   1.407       .  A
C1194      H1205   1.084       .  S
C1195      C1196   1.390       .  A
C1195      H1206   1.084       .  S
C1196      C1197   1.400       .  A
C1196      H1207   1.084       .  S
C1197      C1198   1.421       .  A
C1197      C1202   1.404       .  A
C1198      C1199   1.417       .  A
C1199      C1200   1.400       .  A
C1199      H1208   1.078       .  S
C1200      C1201   1.399       .  A
C1200      H1209   1.083       .  S
C1201      C1202   1.402       .  A
C1202      H1210   1.085       .  S
C1211      C1212   1.397       .  A
C1211      C1216   1.399       .  A
C1212      C1213   1.395       .  A
C1212      H1225   1.083       .  S
C1213      C1214   1.416       .  A
C1213      H1226   1.079       .  S
C1214      C1220   1.426       .  A
C1214      C1215   1.421       .  A
C1215      C1217   1.399       .  A
C1215      C1216   1.401       .  A
C1216      H1227   1.085       .  S
C1217      C1218   1.389       .  A
C1217      H1228   1.084       .  S
C1218      C1219   1.398       .  A
C1218      H1229   1.084       .  S
C1219      C1220   1.424       .  A
C1219      C1224   1.404       .  A
C1220      C1221   1.411       .  A
C1221      C1222   1.390       .  A
C1221      H1230   1.079       .  S
C1222      C1223   1.402       .  A
C1222      H1231   1.083       .  S
C1223      C1224   1.399       .  A
C1224      H1232   1.085       .  S
C1233      C1234   1.398       .  A
C1233      C1238   1.403       .  A
C1234      C1235   1.398       .  A
C1234      H1247   1.083       .  S
C1235      C1236   1.418       .  A
C1235      H1248   1.078       .  S
C1236      C1242   1.430       .  A
C1236      C1237   1.420       .  A
C1237      C1239   1.400       .  A
C1237      C1238   1.404       .  A
C1238      H1249   1.085       .  S
C1239      C1240   1.391       .  A
C1239      H1250   1.084       .  S
C1240      C1241   1.399       .  A
C1240      H1251   1.084       .  S
C1241      C1242   1.426       .  A
C1241      C1246   1.410       .  A
C1242      C1243   1.412       .  A
C1243      C1244   1.393       .  A
C1243      H1252   1.077       .  S
C1244      C1245   1.401       .  A
C1244      H1253   1.084       .  S
C1245      C1246   1.399       .  A
C1246      H1254   1.085       .  S
C1255      C1256   1.398       .  A
C1255      C1260   1.403       .  A
C1256      C1257   1.403       .  A
C1256      H1269   1.083       .  S
C1257      C1258   1.421       .  A
C1257      H1270   1.078       .  S
C1258      C1264   1.434       .  A
C1258      C1259   1.420       .  A
C1259      C1261   1.400       .  A
C1259      C1260   1.403       .  A
C1260      H1271   1.086       .  S
C1261      C1262   1.390       .  A
C1261      H1272   1.084       .  S
C1262      C1263   1.399       .  A
C1262      H1273   1.084       .  S
C1263      C1264   1.426       .  A
C1263      C1268   1.411       .  A
C1264      C1265   1.412       .  A
C1265      C1266   1.396       .  A
C1265      H1274   1.078       .  S
C1266      C1267   1.404       .  A
C1266      H1275   1.083       .  S
C1267      C1268   1.400       .  A
C1268      H1276   1.085       .  S
C1277      C1278   1.400       .  A
C1277      C1282   1.399       .  A
C1278      C1279   1.396       .  A
C1278      H1291   1.084   1_554  S
C1279      C1280   1.412       .  A
C1279      H1292   1.078   1_554  S
C1280      C1286   1.432       .  A
C1280      C1281   1.426       .  A
C1281      C1283   1.399       .  A
C1281      C1282   1.410       .  A
C1282      H1293   1.084       .  S
C1283      C1284   1.391       .  A
C1283      H1294   1.084       .  S
C1284      C1285   1.401       .  A
C1284      H1295   1.084       .  S
C1285      C1286   1.420       .  A
C1285      C1290   1.402       .  A
C1286      C1287   1.421   1_554  A
C1287      C1288   1.404       .  A
C1287      H1296   1.077       .  S
C1288      C1289   1.396       .  A
C1288      H1297   1.083       .  S
C1289      C1290   1.400   1_556  A
C1290      H1298   1.085       .  S
C1299      C1300   1.401   1_556  A
C1299      C1304   1.403       .  A
C1300      C1301   1.391       .  A
C1300      H1313   1.082       .  S
C1301      C1302   1.412       .  A
C1301      H1314   1.087       .  S
C1302      C1308   1.429       .  A
C1302      C1303   1.423   1_554  A
C1303      C1305   1.400       .  A
C1303      C1304   1.408       .  A
C1304      H1315   1.086       .  S
C1305      C1306   1.392       .  A
C1305      H1316   1.084       .  S
C1306      C1307   1.400   1_556  A
C1306      H1317   1.084       .  S
C1307      C1308   1.422       .  A
C1307      C1312   1.407       .  A
C1308      C1309   1.414       .  A
C1309      C1310   1.393       .  A
C1309      H1318   1.087       .  S
C1310      C1311   1.399       .  A
C1310      H1319   1.083       .  S
C1311      C1312   1.402       .  A
C1312      H1320   1.086       .  S
C1321      C1322   1.398       .  A
C1321      C1326   1.403       .  A
C1322      C1323   1.398       .  A
C1322      H1335   1.083       .  S
C1323      C1324   1.418       .  A
C1323      H1336   1.076       .  S
C1324      C1330   1.429       .  A
C1324      C1325   1.420       .  A
C1325      C1327   1.400       .  A
C1325      C1326   1.402       .  A
C1326      H1337   1.084       .  S
C1327      C1328   1.390       .  A
C1327      H1338   1.084       .  S
C1328      C1329   1.399       .  A
C1328      H1339   1.084       .  S
C1329      C1330   1.426       .  A
C1329      C1334   1.408       .  A
C1330      C1331   1.412       .  A
C1331      C1332   1.392       .  A
C1331      H1340   1.076       .  S
C1332      C1333   1.398       .  A
C1332      H1341   1.084       .  S
C1333      C1334   1.397       .  A
C1334      H1342   1.084       .  S
C1343      C1344   1.399       .  A
C1343      C1348   1.404       .  A
C1344      C1345   1.404       .  A
C1344      H1357   1.083       .  S
C1345      C1346   1.420       .  A
C1345      H1358   1.078       .  S
C1346      C1352   1.434       .  A
C1346      C1347   1.420       .  A
C1347      C1349   1.400       .  A
C1347      C1348   1.403       .  A
C1348      H1359   1.085       .  S
C1349      C1350   1.390       .  A
C1349      H1360   1.084       .  S
C1350      C1351   1.398       .  A
C1350      H1361   1.084       .  S
C1351      C1352   1.426       .  A
C1351      C1356   1.409       .  A
C1352      C1353   1.413       .  A
C1353      C1354   1.398       .  A
C1353      H1362   1.078       .  S
C1354      C1355   1.401       .  A
C1354      H1363   1.084       .  S
C1355      C1356   1.398       .  A
C1356      H1364   1.085       .  S
C1365      C1366   1.399       .  A
C1365      C1370   1.400       .  A
C1366      C1367   1.399       .  A
C1366      H1379   1.084       .  S
C1367      C1368   1.417       .  A
C1367      H1380   1.077       .  S
C1368      C1374   1.428       .  A
C1368      C1369   1.421       .  A
C1369      C1371   1.399       .  A
C1369      C1370   1.399       .  A
C1370      H1381   1.085       .  S
C1371      C1372   1.388       .  A
C1371      H1382   1.084       .  S
C1372      C1373   1.398       .  A
C1372      H1383   1.084       .  S
C1373      C1374   1.425       .  A
C1373      C1378   1.403       .  A
C1374      C1375   1.415       .  A
C1375      C1376   1.396       .  A
C1375      H1384   1.077       .  S
C1376      C1377   1.398       .  A
C1376      H1385   1.084       .  S
C1377      C1378   1.397       .  A
C1378      H1386   1.085       .  S
C1387      C1388   1.399       .  A
C1387      C1392   1.401       .  A
C1388      C1389   1.399       .  A
C1388      H1401   1.084       .  S
C1389      C1390   1.416       .  A
C1389      H1402   1.077       .  S
C1390      C1396   1.431       .  A
C1390      C1391   1.422       .  A
C1391      C1393   1.399       .  A
C1391      C1392   1.405       .  A
C1392      H1403   1.085       .  S
C1393      C1394   1.390   1_554  A
C1393      H1404   1.084   1_554  S
C1394      C1395   1.399   1_556  A
C1394      H1405   1.084       .  S
C1395      C1396   1.422       .  A
C1395      C1400   1.405   1_554  A
C1396      C1397   1.415       .  A
C1397      C1398   1.399       .  A
C1397      H1406   1.078       .  S
C1398      C1399   1.402       .  A
C1398      H1407   1.083       .  S
C1399      C1400   1.403   1_554  A
C1400      H1408   1.084       .  S
