geometry optimzed in LAMMPS
_audit_creation_date              2020-12-01 
_audit_creation_method            'lammps2cif' 
_symmetry_space_group_name_H-M    'P1' 
_symmetry_Int_Tables_number       1 
_symmetry_cell_setting            triclinic 
loop_ 
_symmetry_equiv_pos_as_xyz 
  x,y,z 
_cell_length_a                    39.82737533 
_cell_length_b                    39.82712320176318 
_cell_length_c                    25.102640658848642 
_cell_angle_alpha                 89.96156954788648 
_cell_angle_beta                  90.07896942929618 
_cell_angle_gamma                 90.0022882851059 
loop_ 
_atom_site_label 
_atom_site_type_symbol 
_atom_site_fract_x 
_atom_site_fract_y 
_atom_site_fract_z 
_atom_site_charge 
O1          O  0.16531777  0.11820978  0.40465169    -0.77600
C2          C  0.18324118  0.21414842  0.39134427     0.83400
O3          O  0.09415893  0.20168069  0.50377402    -0.78700
O4          O  0.09573259  0.21647035  0.29871627    -0.80200
O5          O  0.09895169  0.11060207  0.30093843    -0.80000
O6          O  0.11908272  0.08846438  0.41328265    -0.78600
Zn7        Zn  0.14270097  0.15880274  0.43792198     1.55700
O8          O  0.14185531  0.14563263  0.28931657    -0.80000
Cd9        Cd  0.08790785  0.12124141  0.37775351     1.59700
Cd10       Cd  0.06761155  0.19291860  0.42675706     1.59600
O11         O  0.03856974  0.11257511  0.39386543    -0.80000
O12         O  0.10368751  0.16609447  0.39569860    -1.90500
Cd13       Cd  0.12566983  0.18403692  0.33417366     1.59900
O14         O  0.02147177  0.16220045  0.42543143    -0.80000
O15         O  0.16631199  0.21084597  0.34932788    -0.78600
C16         C  0.11505951  0.18210729  0.52907501     0.83900
C17         C  0.14908894  0.09123730  0.39671976     0.83600
O18         O  0.17616751  0.19797854  0.43368228    -0.77600
C19         C  0.12648134  0.11861547  0.27881850     0.84400
O20         O  0.12259946  0.15358624  0.51001024    -0.77700
C21         C  0.01531578  0.13172149  0.41034862     0.84500
C22         C  0.07304110  0.23541088  0.31712495     0.84800
O23         O  0.06132129  0.23232064  0.36520876    -0.80100
O24         O  0.06896909  0.05841681  0.06057466    -0.77600
C25         C  0.10065202  0.15898006  0.11655366     0.83400
O26         O  0.15443723  0.04633821  0.99092206    -0.78700
O27         O  0.21084318  0.13533748  0.10951613    -0.80200
O28         O  0.12165302  0.07341504  0.22183637    -0.80000
O29         O  0.07846417  0.03697887  0.14059121    -0.78600
Zn30       Zn  0.10846167  0.09265485  0.05719762     1.55700
O31         O  0.16700356  0.10562184  0.21489276    -0.80000
Cd32       Cd  0.12535962  0.04858139  0.15320720     1.59700
Cd33       Cd  0.18273573  0.05631503  0.06576864     1.59600
O34         O  0.14567969  0.00227605  0.15575568    -0.80000
O35         O  0.14551530  0.07993842  0.10101962    -1.90500
Cd36       Cd  0.16401529  0.11966251  0.13782694     1.59900
O37         O  0.19542960  0.02020603  0.13059502    -0.80000
O38         O  0.12869013  0.15721641  0.14058101    -0.78600
C39         C  0.13403071  0.06662459  0.96611620     0.83900
C40         C  0.06045723  0.03998604  0.09997591     0.83600
O41         O  0.09100305  0.13690946  0.08314032    -0.77600
C42         C  0.13975890  0.09751074  0.23770298     0.84400
O43         O  0.12867638  0.09567473  0.98471351    -0.77700
C44         C  0.17887021  0.52074747  0.19457517     0.84500
C45         C  0.23235572  0.11948807  0.08147873     0.84800
O46         O  0.22539853  0.09045706  0.06125819    -0.80100
O47         O  0.19425402  0.06067755  0.35574981    -0.77600
C48         C  0.27875571  0.01883430  0.37835452     0.83400
O49         O  0.17092958  0.47251820  0.25330455    -0.78700
O50         O  0.23727512  0.40923955  0.40353011    -0.80200
O51         O  0.17982285  0.52331237  0.46472926    -0.80000
O52         O  0.14347417  0.04065502  0.35118843    -0.78600
Zn53       Zn  0.21486002  0.01840509  0.31977771     1.55700
O54         O  0.19770317  0.47197860  0.48457601    -0.80000
Cd55       Cd  0.15842257  0.50321409  0.39743600     1.59700
Cd56       Cd  0.17788959  0.44191264  0.32668573     1.59600
O57         O  0.11962200  0.47551999  0.42002362    -0.80000
O58         O  0.19708921  0.47935555  0.36453966    -1.90500
Cd59       Cd  0.22564664  0.45998271  0.41936341     1.59900
O60         O  0.14331303  0.42800989  0.39359755    -0.80000
O61         O  0.26895671  0.48790550  0.42542677    -0.78600
C62         C  0.19122958  0.49448589  0.23203913     0.83900
C63         C  0.16310195  0.06364237  0.36538185     0.83600
O64         O  0.26222989  0.02454300  0.33600454    -0.77600
C65         C  0.19630585  0.50335211  0.49453700     0.84400
O66         O  0.20594222  0.01220302  0.24162263    -0.77700
C67         C  0.12408645  0.44459628  0.42607192     0.84500
C68         C  0.23416423  0.39185456  0.36083565     0.84800
O69         O  0.21528578  0.40222719  0.32244103    -0.80100
O70         O  0.23279398  0.46090205  0.65836786    -0.77600
C71         C  0.32344268  0.44812410  0.60100618     0.83400
O72         O  0.32222323  0.03497985  0.74155862    -0.78700
O73         O  0.33062013  0.03817686  0.52773457    -0.80200
O74         O  0.21289830  0.03061324  0.55903069    -0.80000
O75         O  0.21110014  0.99978594  0.67270589    -0.78600
Zn76       Zn  0.27633854  0.48049120  0.67896019     1.55700
O77         O  0.25178283  0.99921402  0.51894729    -0.80000
Cd78       Cd  0.23623466  0.03618644  0.63175250     1.59700
Cd79       Cd  0.31410774  0.05466729  0.66110181     1.59600
O80         O  0.23080327  0.08475563  0.65897777    -0.80000
O81         O  0.28387590  0.02205950  0.62940907    -1.90500
Cd82       Cd  0.29558520  0.00735527  0.55811029     1.59900
O83         O  0.28494890  0.09971568  0.66604431    -0.80000
O84         O  0.31816011  0.47050490  0.56649317    -0.78600
C85         C  0.30725288  0.01139876  0.76816899     0.83900
C86         C  0.20405177  0.47349093  0.66622813     0.83600
O87         O  0.31068476  0.44933079  0.64752408    -0.77600
C88         C  0.22185423  0.00992729  0.52326307     0.84400
O89         O  0.28127145  0.48628000  0.75848227    -0.77700
C90         C  0.25339690  0.10699372  0.66616006     0.84500
C91         C  0.35512940  0.05254734  0.55095826     0.84800
O92         O  0.35487009  0.05898605  0.60170612    -0.80100
O93         O  0.50601122  0.03474105  0.13021217    -0.77600
C94         C  0.41712402  0.06364389  0.07999747     0.83400
O95         O  0.42745076  0.46591100  0.25651382    -0.78700
O96         O  0.38130211  0.48250510  0.09247779    -0.80200
O97         O  0.04062716  0.46835869  0.07434353    -0.80000
O98         O  0.04474529  0.49793891  0.18801681    -0.78600
Zn99       Zn  0.46035680  0.02043148  0.15337571     1.55700
O100        O  0.44723253  0.47255182  0.01098698    -0.80000
Cd101      Cd  0.50350225  0.46006534  0.11402696     1.59700
Cd102      Cd  0.43441036  0.44298232  0.17720727     1.59600
O103        O  0.02092675  0.41380320  0.17034436    -0.80000
O104        O  0.46020151  0.47817448  0.14062424    -1.90500
Cd105      Cd  0.43075884  0.49256393  0.07983784     1.59900
O106        O  0.46724019  0.40002539  0.17945033    -0.80000
O107        O  0.41409107  0.04099472  0.04548473    -0.78600
C108        C  0.44181965  0.49045508  0.28226937     0.83900
C109        C  0.02947669  0.02125242  0.10247737     0.83600
O110        O  0.43105623  0.05851513  0.12518891    -0.77600
C111        C  0.47861277  0.46797294  0.01008381     0.84400
O112        O  0.45584728  0.01377291  0.23451681    -0.77700
C113        C  0.49858463  0.39405332  0.17057367     0.84500
C114        C  0.37747851  0.45142730  0.08659404     0.84800
O115        O  0.39437869  0.43148141  0.11736883    -0.80100
O116        O  0.06534276  0.44133450  0.84189469    -0.77600
C117        C  0.46441416  0.48277486  0.85794093     0.83400
O118        O  0.07020870  0.03195042  0.74194685    -0.78700
O119        O  0.48313670  0.08453743  0.85038639    -0.80200
O120        O  0.01408706  0.98566872  0.96749011    -0.80000
O121        O  0.11497776  0.46330261  0.85832461    -0.78600
Zn122      Zn  0.03642231  0.48366900  0.83290948     1.55700
O123        O  0.47180203  0.01353708  0.93344039    -0.80000
Cd124      Cd  0.05271643  0.00531555  0.92629637     1.59700
Cd125      Cd  0.06268909  0.05279388  0.82332049     1.59600
O126        O  0.08221266  0.04103874  0.95594376    -0.80000
O127        O  0.03657459  0.01622792  0.85534888    -1.90500
Cd128      Cd  0.49182567  0.03356888  0.86442037     1.59900
O129        O  0.10579833  0.05806486  0.87951669    -0.80000
O130        O  0.46724059  0.00389971  0.81152876    -0.78600
C131        C  0.06052062  0.00442467  0.71838464     0.83900
C132        C  0.09672982  0.43819318  0.85020634     0.83600
O133        O  0.49062657  0.46505263  0.85345506    -0.77600
C134        C  0.98260932  0.98796837  0.96108146     0.84400
O135        O  0.03064653  0.49956962  0.75800978    -0.77700
C136        C  0.10682213  0.05372440  0.93086125     0.84500
C137        C  0.99909941  0.10372730  0.83679216     0.84800
O138        O  0.03060405  0.09815322  0.82714537    -0.80100
O139        O  0.33891537  0.13474538  0.38849493    -0.77600
C140        C  0.31079412  0.03527196  0.38235418     0.83400
O141        O  0.40186665  0.04400111  0.49012310    -0.78700
O142        O  0.39936330  0.99706108  0.33178067    -0.80200
O143        O  0.41856016  0.09640676  0.26853045    -0.80000
O144        O  0.38193270  0.15266625  0.33931055    -0.78600
Zn145      Zn  0.35669639  0.09077085  0.42079779     1.55700
O146        O  0.37376568  0.06348850  0.25949216    -0.80000
Cd147      Cd  0.41542337  0.11412320  0.34420191     1.59700
Cd148      Cd  0.43205748  0.05329607  0.41761861     1.59600
O149        O  0.46126161  0.13043288  0.37682698    -0.80000
O150        O  0.39486399  0.07612443  0.38134249    -1.90500
Cd151      Cd  0.37663634  0.04191082  0.33108504     1.59900
O152        O  0.47313380  0.08741770  0.43053973    -0.80000
O153        O  0.33030604  0.02917221  0.34450512    -0.78600
C154        C  0.38151721  0.06478644  0.51393043     0.83900
C155        C  0.35224611  0.15613779  0.35700215     0.83600
O156        O  0.31778566  0.05648521  0.41879412    -0.77600
C157        C  0.39150034  0.08808196  0.24479768     0.84400
O158        O  0.37597785  0.09371542  0.49436857    -0.77700
C159        C  0.48086608  0.11600579  0.40998863     0.84500
C160        C  0.42895465  0.00251814  0.31780823     0.84800
O161        O  0.44715619  0.02187434  0.34743532    -0.80100
O162        O  0.43417693  0.19682932  0.10163897    -0.77600
C163        C  0.40193723  0.09563338  0.06846827     0.83400
O164        O  0.33969373  0.20255566  0.99262413    -0.78700
O165        O  0.29142515  0.11259722  0.08632567    -0.80200
O166        O  0.38287594  0.14162046  0.21324161    -0.80000
O167        O  0.41132981  0.21027163  0.17902219    -0.78600
Zn168      Zn  0.39809637  0.16711897  0.06929833     1.55700
O169        O  0.35788347  0.09922073  0.17033649    -0.80000
Cd170      Cd  0.36928576  0.18307574  0.17372754     1.59700
Cd171      Cd  0.31893461  0.19602375  0.07347020     1.59600
O172        O  0.33621350  0.21447680  0.20583897    -0.80000
O173        O  0.35543233  0.16901043  0.10342245    -1.90500
Cd174      Cd  0.34191619  0.12118549  0.10114712     1.59900
O175        O  0.31249529  0.23717701  0.13294300    -0.80000
O176        O  0.37243195  0.09662478  0.04925952    -0.78600
C177        C  0.36581274  0.19049421  0.96791864     0.83900
C178        C  0.43565117  0.21085131  0.14719316     0.83600
O179        O  0.41656636  0.12214422  0.08315394    -0.77600
C180        C  0.37709580  0.11063818  0.20658058     0.84400
O181        O  0.38898492  0.17451049  0.99221442    -0.77700
C182        C  0.31925204  0.23758049  0.18370538     0.84500
C183        C  0.26749469  0.13327776  0.07867705     0.84800
O184        O  0.27331272  0.16508008  0.07381800    -0.80100
O185        O  0.31730018  0.31304074  0.60256070    -0.77600
C186        C  0.34322167  0.41927394  0.58631498     0.83400
O187        O  0.40143052  0.30809343  0.49790025    -0.78700
O188        O  0.45626330  0.39571212  0.58850696    -0.80200
O189        O  0.36883153  0.37454296  0.72202837    -0.80000
O190        O  0.33701018  0.30433815  0.68420228    -0.78600
Zn191      Zn  0.34965192  0.34725139  0.57392757     1.55700
O192        O  0.39979933  0.41462576  0.68424145    -0.80000
Cd193      Cd  0.37924896  0.33202010  0.68095125     1.59700
Cd194      Cd  0.42329439  0.31440143  0.57788360     1.59600
O195        O  0.41269573  0.29889157  0.71080136    -0.80000
O196        O  0.39119442  0.34548294  0.60942673    -1.90500
Cd197      Cd  0.40668131  0.39289404  0.61026216     1.59900
O198        O  0.42737943  0.27236690  0.63559040    -0.80000
O199        O  0.37322052  0.42257984  0.56962043    -0.78600
C200        C  0.37680338  0.32229574  0.47220578     0.83900
C201        C  0.31531537  0.29947684  0.64841536     0.83600
O202        O  0.33023717  0.39065039  0.59341299    -0.77600
C203        C  0.37890355  0.40475777  0.71915294     0.84400
O204        O  0.35661739  0.34233727  0.49528430    -0.77700
C205        C  0.42450403  0.27323181  0.68709817     0.84500
C206        C  0.47820237  0.37260050  0.58336472     0.84800
O207        O  0.47012599  0.34136433  0.57921750    -0.80100
O208        O  0.40035831  0.36665922  0.91006973    -0.77600
C209        C  0.43400345  0.46847908  0.88017717     0.83400
O210        O  0.33722178  0.45246862  0.01152153    -0.78700
O211        O  0.33840061  0.50806583  0.85235582    -0.80200
O212        O  0.33561946  0.42196871  0.77501138    -0.80000
O213        O  0.37216047  0.35765704  0.83448005    -0.78600
Zn214      Zn  0.39116937  0.41395050  0.92739055     1.55700
O215        O  0.38314884  0.45002775  0.77996727    -0.80000
Cd216      Cd  0.33568088  0.39462358  0.84256254     1.59700
Cd217      Cd  0.31163414  0.44345846  0.93332942     1.59600
O218        O  0.28790303  0.37584843  0.86144504    -0.80000
O219        O  0.35108262  0.42811046  0.89414474    -1.90500
Cd220      Cd  0.36874959  0.46821700  0.85373735     1.59900
O221        O  0.27406921  0.40371046  0.93545777    -0.80000
O222        O  0.40929744  0.48761858  0.88594462    -0.78600
C223        C  0.36465211  0.44036289  0.03292415     0.83900
C224        C  0.39472849  0.34963805  0.86812513     0.83600
O225        O  0.43183240  0.43766128  0.89309678    -0.77600
C226        C  0.36490779  0.42797504  0.75772999     0.84400
O227        O  0.38546903  0.42277887  0.00602760    -0.77700
C228        C  0.26762008  0.38114730  0.90004095     0.84500
C229        C  0.30946481  0.49911500  0.83923974     0.84800
O230        O  0.29388338  0.47712212  0.86806049    -0.80100
O231        O  0.30393207  0.19055189  0.33711682    -0.77600
C232        C  0.21387164  0.23329558  0.38577278     0.83400
O233        O  0.32150522  0.28427589  0.24654026    -0.78700
O234        O  0.24767025  0.33863906  0.39839499    -0.80200
O235        O  0.31282106  0.23156097  0.46250597    -0.80000
O236        O  0.35324066  0.21389131  0.34925756    -0.78600
Zn237      Zn  0.27723223  0.23490766  0.32009486     1.55700
O238        O  0.29166112  0.28204112  0.47687887    -0.80000
Cd239      Cd  0.33314089  0.25031945  0.39316153     1.59700
Cd240      Cd  0.31130852  0.31186716  0.32185527     1.59600
O241        O  0.37246421  0.27951634  0.41011040    -0.80000
O242        O  0.29383588  0.27249365  0.35783834    -1.90500
Cd243      Cd  0.26253520  0.28882925  0.41202613     1.59900
O244        O  0.34594441  0.32628894  0.38771935    -0.80000
O245        O  0.22182556  0.25644361  0.41833497    -0.78600
C246        C  0.30393909  0.26096773  0.22286492     0.83900
C247        C  0.33541747  0.18798740  0.34574462     0.83600
O248        O  0.23177671  0.22569740  0.34571319    -0.77600
C249        C  0.29434540  0.25127693  0.48942253     0.84400
O250        O  0.27713399  0.24963185  0.24361078    -0.77700
C251        C  0.36648865  0.30998427  0.41842824     0.84500
C252        C  0.25207156  0.35848015  0.35890305     0.84800
O253        O  0.27258767  0.35073282  0.32103370    -0.80100
O254        O  0.25777325  0.29104245  0.65425959    -0.77600
C255        C  0.16545295  0.30388203  0.60476477     0.83400
O256        O  0.17854258  0.21778345  0.75339269    -0.78700
O257        O  0.16596753  0.20868230  0.54155794    -0.80200
O258        O  0.28080688  0.21758894  0.56358977    -0.80000
O259        O  0.29091679  0.24845303  0.67615419    -0.78600
Zn260      Zn  0.21524886  0.27012168  0.67607909     1.55700
O261        O  0.24151348  0.25025437  0.52708709    -0.80000
Cd262      Cd  0.26099927  0.21366349  0.63887662     1.59700
Cd263      Cd  0.18350034  0.19654213  0.67331652     1.59600
O264        O  0.26556760  0.16477910  0.66294777    -0.80000
O265        O  0.21365795  0.22884219  0.64067524    -1.90500
Cd266      Cd  0.19944355  0.24155679  0.56993480     1.59900
O267        O  0.21146603  0.15040038  0.67291030    -0.80000
O268        O  0.17165395  0.28378248  0.56729177    -0.78600
C269        C  0.19347232  0.24207004  0.77866146     0.83900
C270        C  0.28675811  0.27864665  0.66077804     0.83600
O271        O  0.17880080  0.30094616  0.65065068    -0.77600
C272        C  0.27114935  0.23849735  0.52861209     0.84400
O273        O  0.21281486  0.26255120  0.75474869    -0.77700
C274        C  0.24282346  0.14264697  0.66914115     0.84500
C275        C  0.14095487  0.19601459  0.56563616     0.84800
O276        O  0.14081827  0.19216063  0.61699183    -0.80100
O277        O  0.17329206  0.43813899  0.60935451    -0.77600
C278        C  0.14449889  0.33255119  0.59409723     0.83400
O279        O  0.08929354  0.44640310  0.50544567    -0.78700
O280        O  0.03152438  0.35806915  0.59597907    -0.80200
O281        O  0.12370208  0.37898376  0.72620694    -0.80000
O282        O  0.15256488  0.45029802  0.68897421    -0.78600
Zn283      Zn  0.13949491  0.40505138  0.58040316     1.55700
O284        O  0.08662583  0.34170755  0.69600176    -0.80000
Cd285      Cd  0.11130677  0.42141872  0.68661056     1.59700
Cd286      Cd  0.06664136  0.43959988  0.58461814     1.59600
O287        O  0.07793309  0.45312639  0.71820900    -0.80000
O288        O  0.09797758  0.40771991  0.61588184    -1.90500
Cd289      Cd  0.08080248  0.36097306  0.62032021     1.59900
O290        O  0.06485841  0.48146967  0.64389569    -0.80000
O291        O  0.11354934  0.32901373  0.58255312    -0.78600
C292        C  0.11328517  0.43161601  0.47922478     0.83900
C293        C  0.17502527  0.45319952  0.65404050     0.83600
O294        O  0.15799567  0.36114360  0.59850686    -0.77600
C295        C  0.11094795  0.34978562  0.72623047     0.84400
O296        O  0.13267109  0.41048453  0.50165923    -0.77700
C297        C  0.06826777  0.47996045  0.69537449     0.84500
C298        C  0.01052563  0.38122152  0.58492553     0.84800
O299        O  0.01949699  0.41233291  0.58062882    -0.80100
O300        O  0.09835929  0.38718897  0.89494688    -0.77600
C301        C  0.06077296  0.28367145  0.89917139     0.83400
O302        O  0.15393238  0.29508119  0.00072864    -0.78700
O303        O  0.15303137  0.24456588  0.84463943    -0.80200
O304        O  0.15675626  0.32820097  0.77296615    -0.80000
O305        O  0.13862194  0.39784111  0.83545856    -0.78600
Zn306      Zn  0.10734345  0.34170368  0.92379835     1.55700
O307        O  0.10678603  0.30573010  0.78868296    -0.80000
Cd308      Cd  0.16665027  0.35464882  0.83987745     1.59700
Cd309      Cd  0.18491150  0.30552742  0.92992824     1.59600
O310        O  0.21689930  0.36646761  0.85625714    -0.80000
O311        O  0.14693447  0.32431800  0.89218441    -1.90500
Cd312      Cd  0.12449598  0.28480649  0.85805622     1.59900
O313        O  0.22448306  0.34327644  0.93628589    -0.80000
O314        O  0.08647688  0.26545653  0.90023361    -0.78600
C315        C  0.12972864  0.31242460  0.02225720     0.83900
C316        C  0.11159796  0.40564222  0.85939415     0.83600
O317        O  0.06370444  0.31537535  0.90391779    -0.77600
C318        C  0.12556860  0.32557513  0.76248304     0.84400
O319        O  0.11884164  0.33956560  0.00147879    -0.77700
C320        C  0.23453606  0.36279327  0.89847752     0.84500
C321        C  0.18291973  0.25136858  0.83362793     0.84800
O322        O  0.19961115  0.27213572  0.86318871    -0.80100
O323        O  0.43133283  0.31040487  0.82467561    -0.77600
C324        C  0.02877707  0.26734662  0.88706078     0.83400
O325        O  0.41869985  0.22486114  0.74646766    -0.78700
O326        O  0.99785862  0.15882121  0.87548872    -0.80200
O327        O  0.43938496  0.25208278  0.98337409    -0.80000
O328        O  0.40778949  0.29845294  0.90219686    -0.78600
Zn329      Zn  0.46496768  0.27047500  0.81892980     1.55700
O330        O  0.96097571  0.20613061  0.97468520    -0.80000
Cd331      Cd  0.41825099  0.25082648  0.91071222     1.59700
Cd332      Cd  0.42888926  0.19525247  0.81982983     1.59600
O333        O  0.37201210  0.23092996  0.90233267    -0.80000
O334        O  0.45159446  0.23197944  0.85908216    -1.90500
Cd335      Cd  0.49012122  0.21174148  0.89727109     1.59900
O336        O  0.39223681  0.18149684  0.88195858    -0.80000
O337        O  0.02291335  0.23894463  0.90836769    -0.78600
C338        C  0.43807966  0.24694404  0.72370842     0.83900
C339        C  0.41212614  0.31789619  0.86360844     0.83600
O340        O  0.51040303  0.28535108  0.84681440    -0.77600
C341        C  0.46486051  0.23518738  0.99690257     0.84400
O342        O  0.46656326  0.25381733  0.74376455    -0.77700
C343        C  0.37388486  0.20021609  0.91214571     0.84500
C344        C  0.49000227  0.14352322  0.83915330     0.84800
O345        O  0.46224296  0.15154346  0.81549546    -0.80100
O346        O  0.49402526  0.21250826  0.16045510    -0.77600
C347        C  0.07945111  0.18819027  0.12407044     0.83400
O348        O  0.07668166  0.27649959  0.24735399    -0.78700
O349        O  0.08431091  0.27824492  0.04073291    -0.80200
O350        O  0.47768394  0.27379128  0.06450128    -0.80000
O351        O  0.46465694  0.25740634  0.18170887    -0.78600
Zn352      Zn  0.03023729  0.23043327  0.18379638     1.55700
O353        O  0.00728961  0.23667495  0.03368270    -0.80000
Cd354      Cd  0.49554451  0.28689852  0.13792979     1.59700
Cd355      Cd  0.06600193  0.30109275  0.17173391     1.59600
O356        O  0.48979901  0.33656031  0.15619992    -0.80000
O357        O  0.03497710  0.26867322  0.14112645    -1.90500
Cd358      Cd  0.04904620  0.24887589  0.07471845     1.59900
O359        O  0.03820384  0.34714655  0.17890037    -0.80000
O360        O  0.07277640  0.20496259  0.08281945    -0.78600
C361        C  0.05789086  0.25692123  0.27587404     0.83900
C362        C  0.46605974  0.22753583  0.16440799     0.83600
O363        O  0.06748992  0.19593191  0.16961107    -0.76000
C364        C  0.97782531  0.24870816  0.03322367     0.84400
O365        O  0.02960034  0.24710464  0.25875407    -0.77700
C366        C  0.00755053  0.35610070  0.17017688     0.84500
C367        C  0.10643305  0.29730703  0.06139370     0.84800
O368        O  0.10529155  0.30650073  0.11090468    -0.80100
O369        O  0.15181041  0.61279548  0.39258817    -0.77600
C370        C  0.18462408  0.71740058  0.40816232     0.83400
O371        O  0.09205262  0.70046764  0.50242001    -0.78700
O372        O  0.09306580  0.75498062  0.34804902    -0.80200
O373        O  0.09153755  0.67427102  0.27264346    -0.80000
O374        O  0.11268871  0.60249198  0.33087754    -0.78600
Zn375      Zn  0.13974253  0.65668022  0.42565264     1.55700
O376        O  0.14142337  0.69685986  0.28861634    -0.80000
Cd377      Cd  0.08231018  0.64443101  0.33696318     1.59700
Cd378      Cd  0.06194200  0.69091761  0.42958816     1.59600
O379        O  0.03174807  0.63016779  0.35231561    -0.80000
O380        O  0.10084680  0.67417818  0.39158656    -1.90500
Cd381      Cd  0.12268086  0.71522270  0.35965207     1.59900
O382        O  0.02291563  0.65209536  0.43278538    -0.80000
O383        O  0.15877499  0.73526131  0.40535799    -0.78600
C384        C  0.11584819  0.68243517  0.52387615     0.83900
C385        C  0.13978741  0.59494117  0.35514511     0.83600
O386        O  0.18216859  0.68565384  0.41299984    -0.77600
C387        C  0.12247704  0.67782262  0.26107931     0.84400
O388        O  0.12553860  0.65510097  0.50243887    -0.77700
C389        C  0.01346373  0.63285567  0.39417465     0.84500
C390        C  0.06366071  0.74722468  0.33546898     0.84800
O391        O  0.04737339  0.72531333  0.36354909    -0.80100
O392        O  0.07405314  0.55810034  0.10949511    -0.77600
C393        C  0.09713757  0.66402917  0.08674409     0.83400
O394        O  0.15873783  0.55536011  0.00494097    -0.78700
O395        O  0.21045345  0.64411237  0.08753790    -0.80200
O396        O  0.12774561  0.62398526  0.22860518    -0.80000
O397        O  0.09077565  0.55544387  0.19384786    -0.78600
Zn398      Zn  0.10558755  0.59273889  0.08014774     1.55700
O399        O  0.15478109  0.66453846  0.18466354    -0.80000
Cd400      Cd  0.13471758  0.58072912  0.18817224     1.59700
Cd401      Cd  0.17887135  0.56174444  0.08492739     1.59600
O402        O  0.16650389  0.54624277  0.21786131    -0.80000
O403        O  0.14685166  0.59284749  0.11605201    -1.90500
Cd404      Cd  0.16136179  0.64057670  0.11220748     1.59900
O405        O  0.18318732  0.52007586  0.14330634    -0.80000
O406        O  0.12679446  0.66709834  0.06854978    -0.78600
C407        C  0.13457971  0.56969094  0.97864172     0.83900
C408        C  0.07044585  0.54778474  0.15721026     0.83600
O409        O  0.08487873  0.63561125  0.09777462    -0.77600
C410        C  0.13650960  0.65442819  0.22297388     0.84400
O411        O  0.11331229  0.58855865  0.00166225    -0.77700
C412        C  0.17685276  0.00239773  0.16213121     0.84500
C413        C  0.23226432  0.62099355  0.08139961     0.84800
O414        O  0.22439745  0.58963174  0.08097316    -0.80100
O415        O  0.18752760  0.56029587  0.33984584    -0.77600
C416        C  0.27695313  0.51525336  0.40243929     0.83400
O417        O  0.17559640  0.96410380  0.23825374    -0.78700
O418        O  0.24830765  0.91353145  0.39082549    -0.80200
O419        O  0.17704388  0.01558496  0.46220001    -0.80000
O420        O  0.13784823  0.53716944  0.34866585    -0.78600
Zn421      Zn  0.21605452  0.51721285  0.33010261     1.55700
O422        O  0.20158726  0.96628316  0.47099282    -0.80000
Cd423      Cd  0.15864512  0.00003211  0.38940859     1.59700
Cd424      Cd  0.18144230  0.93929387  0.31706221     1.59600
O425        O  0.11646606  0.97291277  0.39614906    -0.80000
O426        O  0.19879082  0.97873436  0.35319427    -1.90500
Cd427      Cd  0.23105383  0.96261461  0.40614040     1.59900
O428        O  0.14462239  0.92626233  0.38120979    -0.80000
O429        O  0.26965445  0.99735563  0.41296790    -0.78600
C430        C  0.18831187  0.99086818  0.21578036     0.83900
C431        C  0.15577037  0.56290619  0.34452793     0.83600
O432        O  0.25942440  0.52823186  0.36539506    -0.77600
C433        C  0.19764367  0.99643126  0.48599367     0.84400
O434        O  0.21905901  0.50166156  0.25427849    -0.77700
C435        C  0.12283869  0.94316804  0.40876208     0.84500
C436        C  0.24189675  0.89255373  0.35356352     0.84800
O437        O  0.21910011  0.89913887  0.31843301    -0.80100
O438        O  0.24334100  0.95810291  0.64473774    -0.77600
C439        C  0.33130828  0.94607637  0.59279456     0.83400
O440        O  0.31395848  0.53223166  0.75838809    -0.78700
O441        O  0.32379023  0.54656971  0.54536059    -0.80200
O442        O  0.20925147  0.53549130  0.57110962    -0.80000
O443        O  0.20051416  0.50335283  0.68328737    -0.78600
Zn444      Zn  0.28484012  0.98137374  0.66628427     1.55700
O445        O  0.24915911  0.50540837  0.53115726    -0.80000
Cd446      Cd  0.23022661  0.53825147  0.64637983     1.59700
Cd447      Cd  0.30911991  0.55391985  0.67850622     1.59600
O448        O  0.22609790  0.58615568  0.67487914    -0.80000
O449        O  0.27772763  0.52274057  0.64597123    -1.90500
Cd450      Cd  0.29116127  0.51293079  0.57374927     1.59900
O451        O  0.28075276  0.59962530  0.68102452    -0.80000
O452        O  0.32107329  0.96340587  0.55398880    -0.78600
C453        C  0.29966642  0.50737105  0.78317243     0.83900
C454        C  0.21464110  0.97029412  0.65388729     0.83600
O455        O  0.32208507  0.95202639  0.64031549    -0.77600
C456        C  0.21926438  0.51613088  0.53416216     0.84400
O457        O  0.28774482  0.99058815  0.74508197    -0.77700
C458        C  0.24937537  0.60777272  0.68031515     0.84500
C459        C  0.35041682  0.55605616  0.56879061     0.84800
O460        O  0.35179477  0.55795938  0.62050289    -0.80100
O461        O  0.51342316  0.53604938  0.16174731    -0.77600
C462        C  0.42563295  0.56041379  0.10635843     0.83400
O463        O  0.42159033  0.96887870  0.23789636    -0.78700
O464        O  0.37070147  0.97827642  0.08120205    -0.80200
O465        O  0.97413854  0.94195534  0.01896200    -0.80000
O466        O  0.02799562  0.99240863  0.08072236    -0.78600
Zn467      Zn  0.46794438  0.51823467  0.17981045     1.55700
O468        O  0.43099290  0.97212136  0.98933370    -0.80000
Cd469      Cd  0.49125321  0.95763764  0.08902512     1.59700
Cd470      Cd  0.42688329  0.94458175  0.16028018     1.59600
O471        O  0.00901673  0.91234581  0.13161729    -0.80000
O472        O  0.45029622  0.97934889  0.11826714    -1.90500
Cd473      Cd  0.41737070  0.99232132  0.06004204     1.59900
O474        O  0.45949436  0.90295434  0.17126341    -0.80000
O475        O  0.43224254  0.54151249  0.06770044    -0.78600
C476        C  0.43719638  0.99359085  0.26103096     0.83900
C477        C  0.04138627  0.52770204  0.17021279     0.83600
O478        O  0.43481955  0.55361751  0.15393204    -0.77600
C479        C  0.46216891  0.96674428  0.98906582     0.84400
O480        O  0.46230049  0.51027482  0.25914864    -0.77700
C481        C  0.48998253  0.89568649  0.15938186     0.84500
C482        C  0.37147813  0.94755927  0.07029241     0.84800
O483        O  0.38936623  0.92827520  0.10033611    -0.80100
O484        O  0.06704768  0.93921978  0.85901973    -0.77600
C485        C  0.46640045  0.97382640  0.82850580     0.83400
O486        O  0.07824034  0.52894944  0.75275639    -0.78700
O487        O  0.49190337  0.58972707  0.88148644    -0.80200
O488        O  0.07445445  0.48125512  0.97219069    -0.80000
O489        O  0.08459315  0.96673402  0.93045797    -0.78600
Zn490      Zn  0.03671069  0.97316434  0.82188329     1.55700
O491        O  0.48719815  0.51820078  0.96259269    -0.80000
Cd492      Cd  0.09452217  0.49957796  0.90203160     1.59700
Cd493      Cd  0.07177410  0.55940173  0.82690047     1.59600
O494        O  0.13414167  0.52899355  0.91340117    -0.80000
O495        O  0.05482909  0.52147218  0.86736432    -1.90500
Cd496      Cd  0.49869064  0.53910449  0.89010040     1.59900
O497        O  0.10588451  0.57486527  0.89270643    -0.80000
O498        O  0.46482820  0.51382536  0.84642815    -0.78600
C499        C  0.05751026  0.50668204  0.73335233     0.83900
C500        C  0.08366715  0.94062053  0.90241803     0.83600
O501        O  0.49294663  0.95854750  0.84133201    -0.77600
C502        C  0.05502379  0.50034695  0.99863705     0.84400
O503        O  0.04602038  0.98082090  0.74403222    -0.77700
C504        C  0.12655327  0.55879962  0.92340314     0.84500
C505        C  0.01511273  0.60807662  0.86409123     0.84800
O506        O  0.03363821  0.59837673  0.82490094    -0.80100
O507        O  0.34078860  0.63534493  0.39743547    -0.77600
C508        C  0.30897382  0.53069097  0.41422115     0.83400
O509        O  0.39932539  0.54814920  0.51026291    -0.78700
O510        O  0.39856008  0.49488391  0.34343879    -0.80200
O511        O  0.40176942  0.57432439  0.27826843    -0.80000
O512        O  0.38047723  0.64508476  0.33679873    -0.78600
Zn513      Zn  0.35350741  0.59175171  0.43185662     1.55700
O514        O  0.35056842  0.55492902  0.29308127    -0.80000
Cd515      Cd  0.41003304  0.60292861  0.34356144     1.59700
Cd516      Cd  0.42991179  0.55546135  0.43587189     1.59600
O517        O  0.45953248  0.61706546  0.35941782    -0.80000
O518        O  0.39159698  0.57310958  0.39741494    -1.90500
Cd519      Cd  0.36951275  0.53376227  0.36221990     1.59900
O520        O  0.46852092  0.59460435  0.43959893    -0.80000
O521        O  0.33460534  0.51279294  0.40850060    -0.78600
C522        C  0.37687521  0.56819699  0.53107154     0.83900
C523        C  0.35328449  0.65300170  0.36015278     0.83600
O524        O  0.31147698  0.56226239  0.42141075    -0.77600
C525        C  0.37083875  0.57279266  0.26592565     0.84400
O526        O  0.36910729  0.59550679  0.50777905    -0.77700
C527        C  0.47755006  0.61434702  0.40137892     0.84500
C528        C  0.42907125  0.50097973  0.33607270     0.84800
O529        O  0.44495952  0.52129605  0.36798229    -0.80100
O530        O  0.42267889  0.69559882  0.11193380    -0.77600
C531        C  0.40497464  0.58913989  0.09597262     0.83400
O532        O  0.34449481  0.69633493  0.00583735    -0.78700
O533        O  0.28977344  0.60764775  0.08671664    -0.80200
O534        O  0.36994271  0.62674043  0.23182995    -0.80000
O535        O  0.40681723  0.69713558  0.19677143    -0.78600
Zn536      Zn  0.39387860  0.65886133  0.08435981     1.55700
O537        O  0.33980089  0.58796314  0.18917017    -0.80000
Cd538      Cd  0.36352771  0.67026566  0.19076963     1.59700
Cd539      Cd  0.32182265  0.68966126  0.08451725     1.59600
O540        O  0.32962459  0.70326941  0.21800267    -0.80000
O541        O  0.35233440  0.65839591  0.11840980    -1.90500
Cd542      Cd  0.33788069  0.61110319  0.11558656     1.59900
O543        O  0.31694346  0.73096458  0.14263274    -0.80000
O544        O  0.37531942  0.58494900  0.07784379    -0.78600
C545        C  0.36884796  0.68144352  0.98084413     0.83900
C546        C  0.42631646  0.70589384  0.15954735     0.83600
O547        O  0.41642074  0.61787254  0.10676597    -0.77600
C548        C  0.35881122  0.59696674  0.22721302     0.84400
O549        O  0.38834936  0.66117446  0.00490223    -0.77700
C550        C  0.31883876  0.72933591  0.19416880     0.84500
C551        C  0.26801642  0.63086270  0.08090789     0.84800
O552        O  0.27600164  0.66220220  0.08011158    -0.80100
O553        O  0.31909748  0.81263780  0.60217381    -0.77600
C554        C  0.35128915  0.91654205  0.58284655     0.83400
O555        O  0.40811221  0.80292549  0.50090311    -0.78700
O556        O  0.46162338  0.88981409  0.60861061    -0.80200
O557        O  0.35866029  0.86018850  0.71679709    -0.80000
O558        O  0.34360126  0.78881709  0.67193604    -0.78600
Zn559      Zn  0.35486645  0.84369807  0.57393800     1.55700
O560        O  0.39147809  0.90297646  0.69281835    -0.80000
Cd561      Cd  0.38092866  0.82170161  0.67894952     1.59700
Cd562      Cd  0.42962495  0.80926559  0.58177787     1.59600
O563        O  0.41510233  0.79327924  0.71518886    -0.80000
O564        O  0.39580977  0.83925811  0.61132353    -1.90500
Cd565      Cd  0.41035170  0.88611992  0.62090485     1.59900
O566        O  0.43337579  0.76752419  0.64134453    -0.80000
O567        O  0.38273093  0.91855016  0.57453617    -0.78600
C568        C  0.38377964  0.81730341  0.47448727     0.83900
C569        C  0.31875962  0.79241828  0.64146780     0.83600
O570        O  0.33674625  0.88851015  0.58766053    -0.77600
C571        C  0.36555984  0.89122267  0.71628656     0.84400
O572        O  0.36343635  0.83744884  0.49676626    -0.77700
C573        C  0.42853166  0.76810224  0.69262405     0.84500
C574        C  0.48383262  0.86834875  0.59475369     0.84800
O575        O  0.47618486  0.83765208  0.58341806    -0.80100
O576        O  0.40515115  0.86694221  0.88502517    -0.77600
C577        C  0.43445516  0.95835948  0.83830362     0.83400
O578        O  0.33735353  0.95374045  0.99048087    -0.78700
O579        O  0.34754744  0.00506787  0.83535332    -0.80200
O580        O  0.31671887  0.90265193  0.76653218    -0.80000
O581        O  0.36494136  0.84817157  0.83058137    -0.78600
Zn582      Zn  0.39030640  0.91317568  0.90788405     1.55700
O583        O  0.34763703  0.94506862  0.74164243    -0.80000
Cd584      Cd  0.32939934  0.88441349  0.83876665     1.59700
Cd585      Cd  0.31405719  0.94721537  0.91252014     1.59600
O586        O  0.28716980  0.86673762  0.87805659    -0.80000
O587        O  0.35004250  0.92479561  0.87107923    -1.90500
Cd588      Cd  0.36346116  0.95889705  0.81475178     1.59900
O589        O  0.27233970  0.91386978  0.91985705    -0.80000
O590        O  0.41194578  0.96371473  0.80437389    -0.78600
C591        C  0.36187904  0.93826438  0.01423019     0.83900
C592        C  0.39352633  0.84522278  0.85263226     0.83600
O593        O  0.42916402  0.94209763  0.88138444    -0.77600
C594        C  0.34161042  0.91402514  0.74084598     0.84400
O595        O  0.38181096  0.91878134  0.98863526    -0.77700
C596        C  0.26614573  0.88358147  0.90525662     0.84500
C597        C  0.31684299  0.00356457  0.82451395     0.84800
O598        O  0.29789857  0.98544630  0.85458275    -0.80100
O599        O  0.30656920  0.68864160  0.34178414    -0.77600
C600        C  0.21662658  0.73347095  0.39706303     0.83400
O601        O  0.32507676  0.77802218  0.25179599    -0.78700
O602        O  0.25421323  0.84058607  0.39679952    -0.80200
O603        O  0.31554938  0.72986571  0.46580104    -0.80000
O604        O  0.35655948  0.71065742  0.35269250    -0.78600
Zn605      Zn  0.27920573  0.73214511  0.32870082     1.55700
O606        O  0.29509386  0.78093579  0.47924587    -0.80000
Cd607      Cd  0.33702070  0.74747399  0.39689417     1.59700
Cd608      Cd  0.31740003  0.80849578  0.32448268     1.59600
O609        O  0.37787623  0.77435071  0.41344363    -0.80000
O610        O  0.29782110  0.77075143  0.36232312    -1.90500
Cd611      Cd  0.26676694  0.79027497  0.41397283     1.59900
O612        O  0.35320160  0.82185028  0.38986757    -0.80000
O613        O  0.22401226  0.76100776  0.42004137    -0.78600
C614        C  0.30555613  0.75527871  0.23085664     0.83900
C615        C  0.33807182  0.68533011  0.34861092     0.83600
O616        O  0.23493513  0.72074243  0.36092430    -0.77600
C617        C  0.29638116  0.74985802  0.49101478     0.84400
O618        O  0.27780761  0.74726372  0.25260541    -0.77700
C619        C  0.37331200  0.80508481  0.42080234     0.84500
C620        C  0.25961521  0.85892134  0.35577004     0.84800
O621        O  0.28060787  0.84932782  0.31967238    -0.80100
O622        O  0.26055446  0.78794071  0.64679153    -0.77600
C623        C  0.16918320  0.80741331  0.60706790     0.83400
O624        O  0.17301988  0.72631597  0.74768845    -0.78700
O625        O  0.16438323  0.71298468  0.53807018    -0.80200
O626        O  0.27881330  0.71356725  0.55986950    -0.80000
O627        O  0.29086210  0.74410458  0.67154965    -0.78600
Zn628      Zn  0.21784439  0.76910006  0.67328649     1.55700
O629        O  0.24297673  0.75128731  0.52696734    -0.80000
Cd630      Cd  0.25929596  0.71120805  0.63534038     1.59700
Cd631      Cd  0.18124582  0.69874475  0.67273133     1.59600
O632        O  0.26275833  0.66399674  0.66472390    -0.80000
O633        O  0.21286225  0.72850379  0.63755175    -1.90500
Cd634      Cd  0.19967555  0.74409772  0.56765525     1.59900
O635        O  0.20873043  0.65252123  0.68239740    -0.80000
O636        O  0.17569345  0.78897423  0.56750571    -0.78600
C637        C  0.19154938  0.74794964  0.77305332     0.83900
C638        C  0.28873424  0.77384694  0.65362139     0.83600
O639        O  0.18133371  0.80166045  0.65311387    -0.77600
C640        C  0.27154933  0.73711116  0.52772094     0.84400
O641        O  0.21791241  0.75994467  0.75184425    -0.77700
C642        C  0.23974988  0.64353609  0.67783398     0.84500
C643        C  0.14068811  0.69736370  0.56136426     0.84800
O644        O  0.14091045  0.69190607  0.61244117    -0.80100
O645        O  0.17951630  0.94101051  0.59368333    -0.77600
C646        C  0.14776106  0.83626828  0.59929087     0.83400
O647        O  0.08724890  0.94698018  0.48835158    -0.78700
O648        O  0.03707842  0.86145630  0.60942414    -0.80200
O649        O  0.10159151  0.92484077  0.73639905    -0.80000
O650        O  0.16429341  0.94711535  0.67800027    -0.78600
Zn651      Zn  0.14286334  0.90918261  0.56703495     1.55700
O652        O  0.09062763  0.87272983  0.70837333    -0.80000
Cd653      Cd  0.11548260  0.94450906  0.66623431     1.59700
Cd654      Cd  0.06492044  0.94101647  0.56905993     1.59600
O655        O  0.10254667  0.99338108  0.65618138    -0.80000
O656        O  0.10179837  0.91629967  0.60466775    -1.90500
Cd657      Cd  0.08537475  0.87250580  0.62914015     1.59900
O658        O  0.05208088  0.97928952  0.63046299    -0.80000
O659        O  0.11701991  0.83399285  0.61176876    -0.78600
C660        C  0.11281263  0.93320986  0.46415383     0.83900
C661        C  0.18513887  0.95107231  0.64117001     0.83600
O662        O  0.16076418  0.86330110  0.58216820    -0.77600
C663        C  0.09880460  0.89356125  0.74422846     0.84400
O664        O  0.13406276  0.91517063  0.48909970    -0.77700
C665        C  0.07144156  0.99541946  0.66295053     0.84500
C666        C  0.01457986  0.87977404  0.58857862     0.84800
O667        O  0.02105615  0.90931990  0.57039172    -0.80100
O668        O  0.08678138  0.88329368  0.92375978    -0.77600
C669        C  0.06932374  0.78240635  0.90481648     0.83400
O670        O  0.15724155  0.79593680  0.00900386    -0.78700
O671        O  0.15425302  0.78761751  0.80215372    -0.80200
O672        O  0.13700844  0.89253552  0.81490321    -0.80000
O673        O  0.13244424  0.91387954  0.93338981    -0.78600
Zn674      Zn  0.10852624  0.84101123  0.95003471     1.55700
O675        O  0.10042465  0.85048283  0.80469278    -0.80000
Cd676      Cd  0.15786626  0.88107595  0.88749874     1.59700
Cd677      Cd  0.18243303  0.80710002  0.93121736     1.59600
O678        O  0.20822656  0.88840114  0.89433989    -0.80000
O679        O  0.14572299  0.83482454  0.90483240    -1.90500
Cd680      Cd  0.12357886  0.81463448  0.84604636     1.59900
O681        O  0.22643347  0.83971102  0.92923349    -0.80000
O682        O  0.08878640  0.78185977  0.86550784    -0.78600
C683        C  0.13751474  0.81533301  0.03685477     0.83900
C684        C  0.10163445  0.91144615  0.92156765     0.83600
O685        O  0.07340919  0.80289217  0.94340442    -0.77600
C686        C  0.11160402  0.87915115  0.79231027     0.84400
O687        O  0.13116941  0.84471551  0.02056513    -0.77700
C688        C  0.23179578  0.86979474  0.91172599     0.84500
C689        C  0.17736233  0.76813887  0.81743164     0.84800
O690        O  0.18935429  0.76934538  0.86571759    -0.80100
O691        O  0.44147533  0.81062495  0.83536921    -0.77600
C692        C  0.03842958  0.76397031  0.89728548     0.83400
O693        O  0.42241942  0.72115609  0.75479427    -0.78700
O694        O  0.00036244  0.65969395  0.90556220    -0.80200
O695        O  0.43372860  0.76887664  0.97187624    -0.80000
O696        O  0.39330284  0.78822211  0.86039513    -0.78600
Zn697      Zn  0.46970156  0.76718014  0.82486928     1.55700
O698        O  0.95574498  0.72059017  0.98189772    -0.80000
Cd699      Cd  0.41367719  0.75168574  0.90229247     1.59700
Cd700      Cd  0.43292103  0.69261176  0.82922126     1.59600
O701        O  0.37348110  0.72353861  0.91775290    -0.80000
O702        O  0.45268655  0.73083469  0.86506827    -1.90500
Cd703      Cd  0.48597868  0.71444950  0.91619074     1.59900
O704        O  0.39972898  0.67683455  0.89625837    -0.80000
O705        O  0.02946776  0.74040841  0.92842572    -0.78600
C706        C  0.44190769  0.74259277  0.73056144     0.83900
C707        C  0.41047370  0.81330175  0.84745559     0.83600
O708        O  0.51519084  0.77827673  0.85059320    -0.77600
C709        C  0.45343143  0.74959900  0.99737203     0.84400
O710        O  0.47034270  0.75004813  0.75005477    -0.77700
C711        C  0.37937499  0.69322864  0.92688042     0.84500
C712        C  0.49417844  0.64645368  0.85753669     0.84800
O713        O  0.47050287  0.65408720  0.82468417    -0.80100
O714        O  0.48382516  0.71294377  0.16307253    -0.77600
C715        C  0.07751318  0.69316699  0.09987212     0.83400
O716        O  0.06732241  0.78227716  0.25631995    -0.78700
O717        O  0.08714373  0.78740377  0.04639679    -0.80200
O718        O  0.46482928  0.78353496  0.07188422    -0.80000
O719        O  0.45242783  0.75647254  0.18622397    -0.78600
Zn720      Zn  0.03269422  0.72831157  0.17612393     1.55700
O721        O  0.00688470  0.75670037  0.02606252    -0.80000
Cd722      Cd  0.48389669  0.78920166  0.14733481     1.59700
Cd723      Cd  0.06396500  0.80358083  0.17556742     1.59600
O724        O  0.47962169  0.83830681  0.16900208    -0.80000
O725        O  0.03446862  0.77036993  0.14257759    -1.90500
Cd726      Cd  0.04857686  0.75910223  0.07089394     1.59900
O727        O  0.03584629  0.85015904  0.16964449    -0.80000
O728        O  0.07035004  0.71374892  0.06346709    -0.78600
C729        C  0.05377159  0.75655164  0.28008047     0.83900
C730        C  0.45539218  0.72605695  0.17157152     0.83600
O731        O  0.06727581  0.69677224  0.14753788    -0.76000
C732        C  0.97630814  0.76492103  0.03136049     0.84400
O733        O  0.03660327  0.73487948  0.25462361    -0.77700
C734        C  0.00418620  0.85706253  0.16856774     0.84500
C735        C  0.11081655  0.80134868  0.07192341     0.84800
O736        O  0.10843106  0.80737846  0.12261113    -0.80100
O737        O  0.66640191  0.11805541  0.41186196    -0.77600
C738        C  0.68327736  0.21011004  0.39285898     0.83400
O739        O  0.59371522  0.20261876  0.50283042    -0.78700
O740        O  0.59879787  0.21588133  0.30014006    -0.80200
O741        O  0.59774125  0.10210024  0.31268827    -0.80000
O742        O  0.62143199  0.08750545  0.42668363    -0.78600
Zn743      Zn  0.64188848  0.15856298  0.44221774     1.55700
O744        O  0.63746163  0.13911817  0.29062370    -0.80000
Cd745      Cd  0.58831098  0.11719373  0.38841313     1.59700
Cd746      Cd  0.56790493  0.19195252  0.42652103     1.59600
O747        O  0.53922416  0.10885718  0.40810568    -0.80000
O748        O  0.60334228  0.16355310  0.39802339    -1.90500
Cd749      Cd  0.62565814  0.17936719  0.33503412     1.59900
O750        O  0.52176226  0.16124056  0.42475716    -0.80000
O751        O  0.66928993  0.20191927  0.34969334    -0.78600
C752        C  0.61419122  0.18398968  0.53050559     0.83900
C753        C  0.65082160  0.09039104  0.40751682     0.83600
O754        O  0.67314525  0.19895199  0.43751626    -0.77600
C755        C  0.62316605  0.11087258  0.28547594     0.84400
O756        O  0.62211479  0.15484393  0.51445550    -0.77700
C757        C  0.51566769  0.12966598  0.41683768     0.84500
C758        C  0.57659731  0.23561019  0.31837953     0.84800
O759        O  0.56362814  0.23172756  0.36544175    -0.80100
O760        O  0.56734929  0.06444303  0.06745882    -0.77600
C761        C  0.60618628  0.15947229  0.12744071     0.83400
O762        O  0.65378949  0.04496201  0.99838458    -0.78700
O763        O  0.71102805  0.12904911  0.12295206    -0.80200
O764        O  0.61613240  0.06700056  0.22581802    -0.80000
O765        O  0.58016175  0.02956944  0.13350753    -0.78600
Zn766      Zn  0.61015554  0.09413074  0.06473689     1.55700
O767        O  0.66463804  0.09445425  0.22540464    -0.80000
Cd768      Cd  0.62435820  0.04327222  0.15666760     1.59700
Cd769      Cd  0.68188009  0.05343491  0.07313838     1.59600
O770        O  0.64681626  0.99837642  0.16432740    -0.80000
O771        O  0.64515371  0.07701167  0.10886301    -1.90500
Cd772      Cd  0.66425800  0.11390572  0.15119170     1.59900
O773        O  0.69572763  0.01834664  0.13883649    -0.80000
O774        O  0.63160388  0.15380132  0.15663126    -0.78600
C775        C  0.63497740  0.06662698  0.97347794     0.83900
C776        C  0.56030864  0.04005485  0.09860994     0.83600
O777        O  0.59713437  0.13962931  0.09038310    -0.77600
C778        C  0.63575834  0.08884253  0.24503492     0.84400
O779        O  0.63102129  0.09579368  0.99251373    -0.77700
C780        C  0.66871666  0.52285815  0.19870986     0.84500
C781        C  0.73086423  0.11531710  0.08954530     0.84800
O782        O  0.72323637  0.08760838  0.06601991    -0.80100
O783        O  0.69538093  0.05949382  0.36498550    -0.77600
C784        C  0.78110359  0.01727584  0.38624912     0.83400
O785        O  0.66321244  0.47546472  0.26034514    -0.78700
O786        O  0.73368753  0.40976700  0.40298139    -0.80200
O787        O  0.67336128  0.52041469  0.47432726    -0.80000
O788        O  0.64483444  0.03865207  0.36532186    -0.78600
Zn789      Zn  0.71653270  0.01741813  0.32843155     1.55700
O790        O  0.69442427  0.46959800  0.48882739    -0.80000
Cd791      Cd  0.65285952  0.50274518  0.40396096     1.59700
Cd792      Cd  0.67312643  0.44325212  0.33094899     1.59600
O793        O  0.61312510  0.47394144  0.41798031    -0.80000
O794        O  0.69233349  0.48037938  0.36966091    -1.90500
Cd795      Cd  0.72226985  0.46026288  0.42215171     1.59900
O796        O  0.64153046  0.42795788  0.39985549    -0.80000
O797        O  0.76619497  0.48824056  0.42590643    -0.78600
C798        C  0.68201915  0.49855365  0.23862353     0.83900
C799        C  0.66451340  0.06215606  0.37700705     0.83600
O800        O  0.76362722  0.02455252  0.34548173    -0.77600
C801        C  0.69160579  0.50043900  0.50151909     0.84400
O802        O  0.70743207  0.01080422  0.24994143    -0.77700
C803        C  0.62098517  0.44447416  0.42991031     0.84500
C804        C  0.72992393  0.39282221  0.35992658     0.84800
O805        O  0.71053786  0.40373996  0.32255018    -0.80100
O806        O  0.74211008  0.45405120  0.66205963    -0.77600
C807        C  0.82328777  0.44556291  0.59463624     0.83400
O808        O  0.82797820  0.03142919  0.74769497    -0.78700
O809        O  0.83791903  0.03127447  0.53456552    -0.80200
O810        O  0.71545686  0.02355326  0.57284797    -0.80000
O811        O  0.72385457  0.99422738  0.68760841    -0.78600
Zn812      Zn  0.78408955  0.47823508  0.67828005     1.55700
O813        O  0.75597977  0.99986112  0.52422731    -0.80000
Cd814      Cd  0.74162765  0.03237806  0.64223690     1.59700
Cd815      Cd  0.81908312  0.05335119  0.66756671     1.59600
O816        O  0.73471296  0.08134180  0.66788393    -0.80000
O817        O  0.78927328  0.02070748  0.63527108    -1.90500
Cd818      Cd  0.79949389  0.00429777  0.56452614     1.59900
O819        O  0.78842085  0.09817557  0.67215971    -0.80000
O820        O  0.81081469  0.46453130  0.55942282    -0.78600
C821        C  0.81283711  0.00740858  0.77337889     0.83900
C822        C  0.71439673  0.46524607  0.67868782     0.83600
O823        O  0.81926601  0.45052488  0.64431489    -0.77600
C824        C  0.72537773  0.00695289  0.53263708     0.84400
O825        O  0.79055626  0.48526481  0.75722016    -0.77700
C826        C  0.75658578  0.10457417  0.67272531     0.84500
C827        C  0.86053476  0.04923684  0.55624778     0.84800
O828        O  0.85888378  0.05853897  0.60592538    -0.80100
O829        O  0.00712511  0.03195684  0.13439449    -0.77600
C830        C  0.91633360  0.06111153  0.08656992     0.83400
O831        O  0.93086967  0.46666732  0.25393841    -0.78700
O832        O  0.92357465  0.45340704  0.04159923    -0.80200
O833        O  0.49189033  0.44554911  0.03895923    -0.80000
O834        O  0.53848978  0.49859154  0.10890081    -0.78600
Zn835      Zn  0.96152834  0.01771551  0.15743887     1.55700
O836        O  0.00046302  0.49528608  0.02927805    -0.80000
Cd837      Cd  0.01705906  0.46300318  0.14676540     1.59700
Cd838      Cd  0.93797673  0.44584945  0.17408691     1.59600
O839        O  0.51843707  0.41693067  0.15404459    -0.80000
O840        O  0.96929458  0.47757004  0.14268772    -1.90500
Cd841      Cd  0.95693700  0.48718356  0.06938091     1.59900
O842        O  0.96628496  0.39994111  0.17417782    -0.80000
O843        O  0.91197461  0.03805357  0.05309125    -0.78600
C844        C  0.94358777  0.49211795  0.27924760     0.83900
C845        C  0.52852032  0.02309960  0.09941694     0.83600
O846        O  0.93197836  0.05635534  0.13045610    -0.77600
C847        C  0.03090647  0.48655880  0.03577253     0.84400
O848        O  0.95777098  0.01108731  0.23811628    -0.77700
C849        C  0.99768720  0.39189493  0.17341071     0.84500
C850        C  0.89665337  0.44502640  0.06542208     0.84800
O851        O  0.89544098  0.44323263  0.11699382    -0.80100
O852        O  0.56660671  0.44638020  0.86097947    -0.77600
C853        C  0.97451153  0.48361112  0.90175632     0.83400
O854        O  0.57223586  0.03382124  0.74687745    -0.78700
O855        O  0.97914785  0.07950518  0.84758399    -0.80200
O856        O  0.51576813  0.98612037  0.96758879    -0.80000
O857        O  0.60070798  0.47404756  0.91470022    -0.78600
Zn858      Zn  0.53559216  0.48238858  0.83160351     1.55700
O859        O  0.96915131  0.00817016  0.92796908    -0.80000
Cd860      Cd  0.55525494  0.00708716  0.92962538     1.59700
Cd861      Cd  0.56580359  0.05579851  0.82748427     1.59600
O862        O  0.58230156  0.04370668  0.96118731    -0.80000
O863        O  0.53926011  0.02020414  0.85999319    -1.90500
Cd864      Cd  0.98839968  0.02820627  0.85874724     1.59900
O865        O  0.60789707  0.05986691  0.88573591    -0.80000
O866        O  0.96279257  0.99752488  0.80752772    -0.78600
C867        C  0.56076454  0.00703936  0.72314360     0.83900
C868        C  0.59151511  0.44719042  0.89280975     0.83600
O869        O  0.99337267  0.47139601  0.86605341    -0.77600
C870        C  0.48438592  0.99052841  0.96274780     0.84400
O871        O  0.54196569  0.49110553  0.75341176    -0.77700
C872        C  0.60776353  0.05547582  0.93713583     0.84500
C873        C  0.50337418  0.10803155  0.83736583     0.84800
O874        O  0.53475596  0.10171685  0.82815853    -0.80100
O875        O  0.84127379  0.13423981  0.39595506    -0.77600
C876        C  0.81316737  0.03331239  0.38978167     0.83400
O877        O  0.90598363  0.04265865  0.49224942    -0.78700
O878        O  0.90218218  0.99470261  0.33642852    -0.80200
O879        O  0.91590251  0.09220666  0.26813369    -0.80000
O880        O  0.87945705  0.15073632  0.33654271    -0.78600
Zn881      Zn  0.85903799  0.08983847  0.42544678     1.55700
O882        O  0.87141079  0.05881330  0.26289735    -0.80000
Cd883      Cd  0.91416442  0.11286798  0.34186763     1.59700
Cd884      Cd  0.93415044  0.05354004  0.41840022     1.59600
O885        O  0.96052534  0.13041195  0.37156959    -0.80000
O886        O  0.89593132  0.07513655  0.38300666    -1.90500
Cd887      Cd  0.87809656  0.03889940  0.33551270     1.59900
O888        O  0.97383860  0.08940618  0.42856145    -0.80000
O889        O  0.83317714  0.02479238  0.35390023    -0.78600
C890        C  0.88563693  0.06259055  0.51774911     0.83900
C891        C  0.85162818  0.15473609  0.36043363     0.83600
O892        O  0.81951688  0.05663932  0.42312719    -0.77600
C893        C  0.88805165  0.08385912  0.24695145     0.84400
O894        O  0.87888011  0.09154080  0.49918990    -0.77700
C895        C  0.98066614  0.11748360  0.40561322     0.84500
C896        C  0.93153096  0.00056342  0.32166431     0.84800
O897        O  0.94942543  0.02108974  0.34973178    -0.80100
O898        O  0.92667020  0.19623298  0.10414484    -0.77600
C899        C  0.90041648  0.09298013  0.07533271     0.83400
O900        O  0.83571990  0.19798696  0.99576798    -0.78700
O901        O  0.78946156  0.10879782  0.08766529    -0.80200
O902        O  0.87688855  0.13767358  0.21827918    -0.80000
O903        O  0.90537975  0.20679675  0.18401202    -0.78600
Zn904      Zn  0.89320504  0.16388444  0.07391186     1.55700
O905        O  0.85359677  0.09508349  0.17346320    -0.80000
Cd906      Cd  0.86321886  0.17947757  0.17926929     1.59700
Cd907      Cd  0.81521737  0.19291692  0.07751549     1.59600
O908        O  0.82984556  0.21153363  0.21048278    -0.80000
O909        O  0.85098851  0.16565990  0.10810506    -1.90500
Cd910      Cd  0.83917141  0.11754798  0.10395735     1.59900
O911        O  0.80936163  0.23510918  0.13592186    -0.80000
O912        O  0.87144039  0.09339826  0.05405278    -0.78600
C913        C  0.86159521  0.18529831  0.97107635     0.83900
C914        C  0.92854925  0.20943607  0.15021702     0.83600
O915        O  0.91372729  0.11988342  0.09142147    -0.77600
C916        C  0.87214609  0.10659043  0.21042987     0.84400
O917        O  0.88448276  0.16920147  0.99587095    -0.77700
C918        C  0.81484953  0.23557541  0.18711545     0.84500
C919        C  0.76528177  0.12953553  0.08392062     0.84800
O920        O  0.77042589  0.16150891  0.08087455    -0.80100
O921        O  0.81150144  0.31063943  0.60616832    -0.77600
C922        C  0.84051355  0.41563526  0.57855809     0.83400
O923        O  0.89848725  0.30694209  0.49677698    -0.78700
O924        O  0.95254606  0.39448731  0.58796339    -0.80200
O925        O  0.86758476  0.37162053  0.72301021    -0.80000
O926        O  0.83241477  0.30317959  0.68734776    -0.78600
Zn927      Zn  0.84469292  0.34347603  0.57470886     1.55700
O928        O  0.89363432  0.41246706  0.67807276    -0.80000
Cd929      Cd  0.87557525  0.32904185  0.68154723     1.59700
Cd930      Cd  0.91982929  0.31187368  0.57774967     1.59600
O931        O  0.90796191  0.29485216  0.71134110    -0.80000
O932        O  0.88696628  0.34204396  0.60926983    -1.90500
Cd933      Cd  0.90246241  0.38960684  0.60641243     1.59900
O934        O  0.92500177  0.26969523  0.63616310    -0.80000
O935        O  0.87025458  0.41708027  0.56042929    -0.78600
C936        C  0.87311586  0.32057984  0.47205126     0.83900
C937        C  0.81000860  0.29806940  0.65281905     0.83600
O938        O  0.82666662  0.38794121  0.58976330    -0.77600
C939        C  0.87602165  0.40212182  0.71685602     0.84400
O940        O  0.85133431  0.33794285  0.49673237    -0.77700
C941        C  0.92111958  0.26989227  0.68765099     0.84500
C942        C  0.97442929  0.37150891  0.58194839     0.84800
O943        O  0.96607347  0.34027456  0.57799568    -0.80100
O944        O  0.90691598  0.36694854  0.90165584    -0.77600
C945        C  0.94142125  0.46908797  0.90581337     0.83400
O946        O  0.84760534  0.45475988  0.00816843    -0.78700
O947        O  0.84826754  0.50780988  0.84810325    -0.80200
O948        O  0.83603547  0.42031747  0.77732506    -0.80000
O949        O  0.86974617  0.35535914  0.83758307    -0.78600
Zn950      Zn  0.89376102  0.41099285  0.93321093     1.55700
O951        O  0.88522700  0.44600760  0.77713743    -0.80000
Cd952      Cd  0.83719930  0.39468117  0.84647747     1.59700
Cd953      Cd  0.81809103  0.44653924  0.93367106     1.59600
O954        O  0.78981123  0.37713025  0.86818600    -0.80000
O955        O  0.85669181  0.42848416  0.89429512    -1.90500
Cd956      Cd  0.87629886  0.46606696  0.85064521     1.59900
O957        O  0.77759673  0.40983362  0.93756709    -0.80000
O958        O  0.91972597  0.48299178  0.87693215    -0.78600
C959        C  0.86914709  0.43387518  0.02902586     0.83900
C960        C  0.89604224  0.34846191  0.86407112     0.83600
O961        O  0.93589372  0.44145566  0.93016175    -0.77600
C962        C  0.86469850  0.42530479  0.75687406     0.84400
O963        O  0.87477851  0.40598396  0.00642424    -0.77700
C964        C  0.76989428  0.38570842  0.90547214     0.84500
C965        C  0.81853609  0.50039674  0.83684958     0.84800
O966        O  0.80222199  0.48001092  0.86747208    -0.80100
O967        O  0.80643637  0.19108840  0.33207964    -0.77600
C968        C  0.71314587  0.23045541  0.38767534     0.83400
O969        O  0.81846289  0.28401118  0.24734963    -0.78700
O970        O  0.74102894  0.33839452  0.39459291    -0.80200
O971        O  0.81182795  0.24137675  0.47586403    -0.80000
O972        O  0.84984186  0.21085062  0.37735770    -0.78600
Zn973      Zn  0.77692728  0.23447046  0.32191694     1.55700
O974        O  0.78354318  0.28890295  0.47957008    -0.80000
Cd975      Cd  0.83095725  0.25344854  0.40276534     1.59700
Cd976      Cd  0.80821073  0.31238396  0.32262567     1.59600
O977        O  0.87223045  0.28211171  0.40260851    -0.80000
O978        O  0.79198815  0.27248658  0.36106854    -1.90500
Cd979      Cd  0.75761316  0.28966162  0.41100717     1.59900
O980        O  0.84290584  0.32785458  0.38778755    -0.80000
O981        O  0.71863406  0.25543326  0.41806970    -0.78600
C982        C  0.80031430  0.26064280  0.22491087     0.83900
C983        C  0.83491619  0.18705373  0.35486973     0.83600
O984        O  0.73261757  0.22243164  0.34973944    -0.77600
C985        C  0.78945348  0.25962704  0.49693594     0.84400
O986        O  0.77326459  0.25091636  0.24663375    -0.77700
C987        C  0.86463274  0.31135564  0.41593324     0.84500
C988        C  0.74733135  0.35909136  0.35703606     0.84800
O989        O  0.76960785  0.35201899  0.32131330    -0.80100
O990        O  0.75250524  0.28884530  0.66340721    -0.77600
C991        C  0.66313942  0.30616904  0.63779069     0.83400
O992        O  0.67206161  0.21765979  0.75251346    -0.78700
O993        O  0.65735412  0.22137846  0.54975702    -0.80200
O994        O  0.77680207  0.22231993  0.56667116    -0.80000
O995        O  0.78702390  0.24687735  0.68196074    -0.78600
Zn996      Zn  0.71315279  0.26357726  0.68916732     1.55700
O997        O  0.73726941  0.25781839  0.53740170    -0.80000
Cd998      Cd  0.75865139  0.21257072  0.64113573     1.59700
Cd999      Cd  0.68246759  0.19206983  0.67680459     1.59600
O1000       O  0.76581724  0.16288335  0.66145411    -0.80000
O1001       O  0.71109220  0.22603406  0.64495406    -1.90500
Cd1002     Cd  0.69551046  0.24874153  0.58153575     1.59900
O1003       O  0.71315783  0.14699359  0.68062199    -0.80000
O1004       O  0.67435253  0.29438087  0.59455779    -0.78600
C1005       C  0.69152383  0.23761228  0.77937713     0.83900
C1006       C  0.78194705  0.27707883  0.66738460     0.83600
O1007       O  0.67157980  0.29358222  0.68252392    -0.77600
C1008       C  0.76682677  0.24569539  0.53596359     0.84400
O1009       O  0.72019368  0.24499758  0.76154674    -0.77700
C1010       C  0.74455647  0.14012887  0.67324197     0.84500
C1011       C  0.63806727  0.19901271  0.56925298     0.84800
O1012       O  0.64267296  0.18651968  0.61649980    -0.80100
O1013       O  0.67844294  0.43558579  0.62021168    -0.77600
C1014       C  0.64199391  0.33597921  0.63415191     0.83400
O1015       O  0.58762699  0.44921679  0.50954300    -0.78700
O1016       O  0.53457737  0.36260131  0.61065878    -0.80200
O1017       O  0.59014727  0.43467432  0.75314860    -0.80000
O1018       O  0.66149101  0.44778671  0.70235410    -0.78600
Zn1019     Zn  0.63973024  0.40730678  0.58954162     1.55700
O1020       O  0.56347385  0.38983732  0.72639886    -0.80000
Cd1021     Cd  0.61308314  0.44901482  0.68553747     1.59700
Cd1022     Cd  0.56509753  0.44383375  0.58733482     1.59600
O1023       O  0.60299601  0.49772167  0.66731757    -0.80000
O1024       O  0.59930599  0.41752426  0.62643106    -1.90500
Cd1025     Cd  0.57799192  0.37519747  0.65269967     1.59900
O1026       O  0.55200455  0.48398283  0.64417165    -0.80000
O1027       O  0.61393759  0.33739325  0.65847901    -0.78600
C1028       C  0.61223571  0.43432952  0.48535714     0.83900
C1029       C  0.68371245  0.44754407  0.66681977     0.83600
O1030       O  0.65251943  0.35972714  0.60457112    -0.77600
C1031       C  0.58712219  0.40315173  0.75269247     0.84400
O1032       O  0.63272508  0.41520261  0.51016279    -0.77700
C1033       C  0.57196741  0.50080031  0.67462130     0.84500
C1034       C  0.51374040  0.38303951  0.58954001     0.84800
O1035       O  0.52153547  0.41374464  0.58018045    -0.80100
O1036       O  0.59152651  0.38953298  0.90894244    -0.77600
C1037       C  0.56396796  0.29168634  0.88377656     0.83400
O1038       O  0.65652338  0.29856810  0.99708477    -0.78700
O1039       O  0.65463733  0.28058038  0.79589724    -0.80200
O1040       O  0.63881183  0.39536942  0.79780903    -0.80000
O1041       O  0.63994425  0.41624933  0.91449450    -0.78600
Zn1042     Zn  0.60860865  0.34514742  0.93251269     1.55700
O1043       O  0.60536628  0.35126728  0.78322031    -0.80000
Cd1044     Cd  0.66246960  0.38143473  0.86792790     1.59700
Cd1045     Cd  0.68266632  0.30982422  0.92186871     1.59600
O1046       O  0.71351946  0.38767213  0.87742639    -0.80000
O1047       O  0.64677940  0.33640141  0.88898382    -1.90500
Cd1048     Cd  0.62534840  0.31486734  0.82871875     1.59900
O1049       O  0.72768501  0.34238799  0.92572547    -0.80000
O1050       O  0.58461274  0.28800419  0.84632918    -0.78600
C1051       C  0.63534328  0.31650927  0.02424420     0.83900
C1052       C  0.60852302  0.41639278  0.90651981     0.83600
O1053       O  0.56935320  0.31206926  0.92203434    -0.77600
C1054       C  0.61237379  0.38210189  0.77800337     0.84400
O1055       O  0.62576897  0.34497622  0.00731031    -0.77700
C1056       C  0.73511650  0.37109111  0.90429714     0.84500
C1057       C  0.67720947  0.26240019  0.81671524     0.84800
O1058       O  0.68959903  0.26850228  0.86367942    -0.80100
O1059       O  0.93506216  0.30900928  0.82853546    -0.77600
C1060       C  0.53256306  0.27345480  0.87846884     0.83400
O1061       O  0.91551920  0.22165768  0.74771196    -0.78700
O1062       O  0.50483154  0.16433219  0.86983970    -0.80200
O1063       O  0.93011404  0.25231667  0.97976127    -0.80000
O1064       O  0.89791502  0.29391865  0.88971862    -0.78600
Zn1065     Zn  0.96391714  0.26643340  0.82117965     1.55700
O1066       O  0.47325610  0.20839463  0.97292263    -0.80000
Cd1067     Cd  0.91012570  0.24741210  0.90624819     1.59700
Cd1068     Cd  0.92475895  0.19096677  0.82071213     1.59600
O1069       O  0.86507183  0.22447954  0.90241777    -0.80000
O1070       O  0.94665833  0.22815243  0.85950740    -1.90500
Cd1071     Cd  0.98275046  0.20684981  0.90181792     1.59900
O1072       O  0.88953724  0.17653421  0.88555347    -0.80000
O1073       O  0.52957138  0.24492931  0.90069081    -0.78600
C1074       C  0.93491780  0.24379401  0.72477429     0.83900
C1075       C  0.91037139  0.31543669  0.85907825     0.83600
O1076       O  0.00919867  0.28024465  0.85233633    -0.77600
C1077       C  0.95436259  0.23442508  0.99572597     0.84400
O1078       O  0.96352532  0.25091792  0.74465373    -0.77700
C1079       C  0.86960081  0.19439064  0.91462385     0.84500
C1080       C  0.98504434  0.13900510  0.84095035     0.84800
O1081       O  0.95854766  0.14775930  0.81456198    -0.80100
O1082       O  0.98660314  0.21122659  0.16124264    -0.77600
C1083       C  0.58693434  0.19010147  0.13369305     0.83400
O1084       O  0.58200215  0.27888281  0.25079785    -0.78700
O1085       O  0.59284903  0.27921872  0.04520140    -0.80200
O1086       O  0.96890861  0.27325566  0.06247640    -0.80000
O1087       O  0.95771068  0.25698115  0.18070505    -0.78600
Zn1088     Zn  0.53662510  0.23308744  0.18717171     1.55700
O1089       O  0.51686567  0.23732848  0.03786972    -0.80000
Cd1090     Cd  0.98863739  0.28563143  0.13535896     1.59700
Cd1091     Cd  0.57153315  0.30541782  0.17540644     1.59600
O1092       O  0.98531129  0.33543810  0.15426863    -0.80000
O1093       O  0.54223305  0.27145016  0.14460612    -1.90500
Cd1094     Cd  0.55780997  0.25026253  0.08018699     1.59900
O1095       O  0.54189043  0.35133813  0.18059518    -0.80000
O1096       O  0.58130106  0.20651534  0.09167364    -0.78600
C1097       C  0.56264171  0.25902175  0.27815961     0.83900
C1098       C  0.95885616  0.22660290  0.16564964     0.83600
O1099       O  0.57449573  0.19876441  0.17838793    -0.76000
C1100       C  0.48736444  0.24921110  0.03591816     0.84400
O1101       O  0.53383241  0.25110488  0.26080556    -0.77700
C1102       C  0.51084411  0.35870876  0.17107258     0.84500
C1103       C  0.61288568  0.30092261  0.06441078     0.84800
O1104       O  0.61019140  0.31192944  0.11295480    -0.80100
O1105       O  0.64594046  0.61408864  0.40139346    -0.77600
C1106       C  0.68100163  0.71705090  0.40487904     0.83400
O1107       O  0.58737572  0.70220815  0.50831871    -0.78700
O1108       O  0.58815194  0.75722714  0.35503484    -0.80200
O1109       O  0.58459249  0.67409431  0.27813492    -0.80000
O1110       O  0.60821063  0.60386134  0.33767324    -0.78600
Zn1111     Zn  0.63483405  0.65854655  0.43095317     1.55700
O1112       O  0.63419346  0.69778047  0.29088413    -0.80000
Cd1113     Cd  0.57782258  0.64551195  0.34383169     1.59700
Cd1114     Cd  0.55735527  0.69293336  0.43522768     1.59600
O1115       O  0.52854613  0.63052972  0.35992532    -0.80000
O1116       O  0.59618999  0.67615463  0.39708956    -1.90500
Cd1117     Cd  0.61736998  0.71670981  0.36267866     1.59900
O1118       O  0.51900436  0.65354881  0.43939431    -0.80000
O1119       O  0.65581715  0.73589123  0.40329537    -0.78600
C1120       C  0.61102481  0.68413383  0.53015640     0.83900
C1121       C  0.63451284  0.59613117  0.36379956     0.83600
O1122       O  0.67766008  0.68569047  0.41315119    -0.77600
C1123       C  0.61525675  0.67773345  0.26529311     0.84400
O1124       O  0.62178665  0.65746192  0.50809171    -0.77700
C1125       C  0.51029193  0.63344053  0.40149996     0.84500
C1126       C  0.55908599  0.74927817  0.34105655     0.84800
O1127       O  0.54263362  0.72712927  0.36849725    -0.80100
O1128       O  0.57732513  0.55928767  0.08198205    -0.77600
C1129       C  0.59893255  0.67014476  0.09218817     0.83400
O1130       O  0.65236915  0.55348576  0.01143132    -0.78700
O1131       O  0.71199185  0.64438996  0.09807572    -0.80200
O1132       O  0.61476319  0.62578280  0.22425546    -0.80000
O1133       O  0.57790305  0.56144237  0.17022963    -0.78600
Zn1134     Zn  0.60878674  0.59957786  0.07187993     1.55700
O1135       O  0.65415083  0.66217412  0.19794989    -0.80000
Cd1136     Cd  0.62315815  0.58303044  0.18257635     1.59700
Cd1137     Cd  0.67637838  0.56353236  0.08800399     1.59600
O1138       O  0.64954283  0.54538530  0.21798700    -0.80000
O1139       O  0.64542338  0.59636033  0.11777366    -1.90500
Cd1140     Cd  0.66228808  0.64294661  0.12237969     1.59900
O1141       O  0.67966514  0.52429934  0.15005552    -0.80000
O1142       O  0.62996434  0.67412539  0.08165205    -0.78600
C1143       C  0.63487730  0.57381896  0.98211147     0.83900
C1144       C  0.56584763  0.55018831  0.12718224     0.83600
O1145       O  0.58571478  0.64118921  0.09375624    -0.77600
C1146       C  0.62911440  0.65426134  0.22697433     0.84400
O1147       O  0.62815715  0.60294865  0.99890143    -0.77700
C1148       C  0.67792796  0.00006563  0.17080435     0.84500
C1149       C  0.73218181  0.62086761  0.08484625     0.84800
O1150       O  0.72263841  0.59009034  0.08007102    -0.80100
O1151       O  0.68235274  0.56171671  0.35098936    -0.77600
C1152       C  0.77410713  0.51527588  0.40173845     0.83400
O1153       O  0.67772270  0.96224901  0.24732298    -0.78700
O1154       O  0.75213803  0.91058463  0.39530820    -0.80200
O1155       O  0.68051159  0.01197610  0.47205859    -0.80000
O1156       O  0.63264235  0.53841458  0.35789626    -0.78600
Zn1157     Zn  0.71016443  0.51913596  0.33679954     1.55700
O1158       O  0.70648072  0.96321118  0.47944305    -0.80000
Cd1159     Cd  0.66197763  0.99729585  0.39928838     1.59700
Cd1160     Cd  0.68493294  0.93732489  0.32543243     1.59600
O1161       O  0.62077178  0.96894679  0.40511972    -0.80000
O1162       O  0.70200244  0.97701133  0.36135784    -1.90500
Cd1163     Cd  0.73475504  0.95974655  0.41281152     1.59900
O1164       O  0.65049501  0.92319521  0.39215205    -0.80000
O1165       O  0.77327333  0.99416217  0.41889771    -0.78600
C1166       C  0.68992485  0.98911460  0.22448914     0.83900
C1167       C  0.65057807  0.56415884  0.35455701     0.83600
O1168       O  0.75521964  0.52888006  0.36704145    -0.77600
C1169       C  0.70158200  0.99310855  0.49524632     0.84400
O1170       O  0.70983643  0.50724921  0.25952243    -0.77700
C1171       C  0.62857125  0.93991004  0.41956417     0.84500
C1172       C  0.74557121  0.89030079  0.35706207     0.84800
O1173       O  0.72260300  0.89760574  0.32275407    -0.80100
O1174       O  0.75210851  0.95397980  0.64753718    -0.77600
C1175       C  0.83392733  0.94331561  0.59922539     0.83400
O1176       O  0.82028363  0.53298929  0.75490143    -0.78700
O1177       O  0.82725623  0.54012723  0.54077936    -0.80200
O1178       O  0.70556689  0.52421643  0.58484724    -0.80000
O1179       O  0.71257164  0.49387170  0.70100673    -0.78600
Zn1180     Zn  0.79216277  0.97958699  0.67113300     1.55700
O1181       O  0.74622755  0.50874294  0.52866842    -0.80000
Cd1182     Cd  0.73257415  0.53087394  0.65450154     1.59700
Cd1183     Cd  0.81131992  0.55260089  0.67475095     1.59600
O1184       O  0.72607489  0.57900386  0.68154460    -0.80000
O1185       O  0.78068934  0.51989822  0.64385670    -1.90500
Cd1186     Cd  0.79013893  0.51052361  0.56943292     1.59900
O1187       O  0.77989772  0.59586550  0.67932134    -0.80000
O1188       O  0.81778080  0.95693289  0.56179732    -0.78600
C1189       C  0.80789945  0.50766830  0.78083203     0.83900
C1190       C  0.72445862  0.96666417  0.66169412     0.83600
O1191       O  0.83212975  0.95400418  0.64675905    -0.77600
C1192       C  0.71545997  0.51306802  0.54010676     0.84400
O1193       O  0.79258102  0.98779466  0.74959040    -0.77700
C1194       C  0.74815186  0.60208524  0.68270891     0.84500
C1195       C  0.85214486  0.55394603  0.56377387     0.84800
O1196       O  0.85233623  0.55910494  0.61494283    -0.80100
O1197       O  0.01274852  0.53989133  0.15994215    -0.77600
C1198       C  0.92280702  0.55123666  0.09645251     0.83400
O1199       O  0.92421270  0.96568334  0.24285903    -0.78700
O1200       O  0.87123597  0.97288829  0.08652527    -0.80200
O1201       O  0.47410550  0.94296830  0.01685672    -0.80000
O1202       O  0.52695846  0.99391889  0.07902310    -0.78600
Zn1203     Zn  0.96908872  0.51941654  0.17661836     1.55700
O1204       O  0.93028910  0.97103390  0.99363314    -0.80000
Cd1205     Cd  0.99217638  0.95556310  0.09115877     1.59700
Cd1206     Cd  0.92903170  0.94104209  0.16507615     1.59600
O1207       O  0.50809080  0.91580736  0.13221659    -0.80000
O1208       O  0.95130677  0.97645335  0.12242441    -1.90500
Cd1209     Cd  0.91714967  0.98923442  0.06574818     1.59900
O1210       O  0.96168640  0.89928082  0.17430689    -0.80000
O1211       O  0.92933248  0.52961456  0.06121692    -0.78600
C1212       C  0.93958172  0.99087031  0.26522087     0.83900
C1213       C  0.53763620  0.52712232  0.13186099     0.83600
O1214       O  0.93484027  0.54958970  0.14342015    -0.77600
C1215       C  0.96136795  0.96532862  0.99123339     0.84400
O1216       O  0.96204739  0.51355232  0.25554431    -0.77700
C1217       C  0.99165345  0.89195287  0.15965764     0.84500
C1218       C  0.87343834  0.94225672  0.07537765     0.84800
O1219       O  0.89188637  0.92367501  0.10557945    -0.80100
O1220       O  0.56802437  0.94258003  0.86082835    -0.77600
C1221       C  0.96427715  0.96704723  0.82270046     0.83400
O1222       O  0.57540757  0.53695295  0.75368635    -0.78700
O1223       O  0.01220346  0.59009252  0.90605242    -0.80200
O1224       O  0.52969270  0.48226898  0.97112559    -0.80000
O1225       O  0.58860550  0.96910624  0.93105467    -0.78600
Zn1226     Zn  0.53759871  0.97724207  0.82676661     1.55700
O1227       O  0.05222257  0.53129648  0.98710041    -0.80000
Cd1228     Cd  0.56446941  0.50731532  0.92872960     1.59700
Cd1229     Cd  0.56887210  0.55989362  0.83377982     1.59600
O1230       O  0.58772774  0.54328396  0.96559382    -0.80000
O1231       O  0.54259877  0.52410873  0.86636740    -1.90500
Cd1232     Cd  0.02444731  0.53990593  0.92109117     1.59900
O1233       O  0.61037291  0.56661254  0.89260568    -0.80000
O1234       O  0.98145492  0.51076892  0.92613721    -0.78600
C1235       C  0.56133129  0.51166936  0.72922830     0.83900
C1236       C  0.58616787  0.94317205  0.90262772     0.83600
O1237       O  0.99202994  0.95325638  0.83339908    -0.77600
C1238       C  0.49963563  0.49084215  0.98016471     0.84400
O1239       O  0.54493685  0.98427729  0.74859718    -0.77700
C1240       C  0.61069671  0.56010957  0.94343510     0.84500
C1241       C  0.50883935  0.61199111  0.85695578     0.84800
O1242       O  0.53740673  0.60514838  0.83498379    -0.80100
O1243       O  0.84040644  0.63237578  0.39090952    -0.77600
C1244       C  0.80747466  0.52934606  0.40801472     0.83400
O1245       O  0.90107760  0.54790327  0.50495055    -0.78700
O1246       O  0.90160695  0.49305910  0.34334880    -0.80200
O1247       O  0.90607331  0.57322117  0.27264655    -0.80000
O1248       O  0.87978487  0.64321570  0.32996397    -0.78600
Zn1249     Zn  0.85384495  0.58974384  0.42691835     1.55700
O1250       O  0.85533478  0.55170105  0.28267773    -0.80000
Cd1251     Cd  0.91137605  0.60232784  0.33815180     1.59700
Cd1252     Cd  0.93131376  0.55610201  0.43080324     1.59600
O1253       O  0.96130242  0.61747025  0.35336178    -0.80000
O1254       O  0.89207345  0.57183179  0.39149882    -1.90500
Cd1255     Cd  0.87081830  0.53203761  0.35466941     1.59900
O1256       O  0.97079588  0.59487308  0.43312714    -0.80000
O1257       O  0.83159719  0.51146625  0.39262212    -0.78600
C1258       C  0.87797256  0.56714803  0.52574751     0.83900
C1259       C  0.85221004  0.65016003  0.35322119     0.83600
O1260       O  0.81160493  0.56008875  0.42053531    -0.77600
C1261       C  0.87579613  0.57032170  0.25744820     0.84400
O1262       O  0.86954194  0.59436709  0.50271806    -0.77700
C1263       C  0.98000588  0.61433263  0.39456463     0.84500
C1264       C  0.93147615  0.50103948  0.33381941     0.84800
O1265       O  0.94691241  0.52225812  0.36443861    -0.80100
O1266       O  0.93012934  0.68571301  0.10751051    -0.77600
C1267       C  0.90290812  0.58021631  0.08268638     0.83400
O1268       O  0.84727087  0.69358221  0.99890652    -0.78700
O1269       O  0.78932918  0.60518337  0.08593627    -0.80200
O1270       O  0.87463253  0.62385738  0.22229952    -0.80000
O1271       O  0.90929415  0.69487753  0.18817266    -0.78600
Zn1272     Zn  0.89748497  0.65269453  0.07583635     1.55700
O1273       O  0.84448271  0.58451517  0.18072357    -0.80000
Cd1274     Cd  0.86668954  0.66709744  0.18188414     1.59700
Cd1275     Cd  0.82449694  0.68641797  0.07796406     1.59600
O1276       O  0.83212925  0.69895082  0.21138703    -0.80000
O1277       O  0.85555285  0.65430738  0.10959367    -1.90500
Cd1278     Cd  0.83921570  0.60700618  0.10724626     1.59900
O1279       O  0.81927485  0.72746722  0.13713382    -0.80000
O1280       O  0.87277611  0.57729710  0.06615094    -0.78600
C1281       C  0.87210715  0.67928428  0.97402373     0.83900
C1282       C  0.93172650  0.69934031  0.15335891     0.83600
O1283       O  0.91584925  0.60858916  0.09208763    -0.77600
C1284       C  0.86390659  0.59393880  0.21800140     0.84400
O1285       O  0.89174336  0.65893994  0.99759505    -0.77700
C1286       C  0.82075185  0.72515400  0.18867557     0.84500
C1287       C  0.76835883  0.62916301  0.08052491     0.84800
O1288       O  0.77768741  0.66004540  0.07669979    -0.80100
O1289       O  0.81531473  0.80978839  0.60742509    -0.77600
C1290       C  0.85237487  0.91312350  0.58889676     0.83400
O1291       O  0.90583701  0.79728902  0.50218304    -0.78700
O1292       O  0.95870563  0.88587397  0.61699758    -0.80200
O1293       O  0.85451640  0.84738303  0.71954905    -0.80000
O1294       O  0.84395969  0.77761835  0.66325273    -0.78600
Zn1295     Zn  0.85236653  0.83959684  0.57593677     1.55700
O1296       O  0.88663860  0.89224238  0.70411118    -0.80000
Cd1297     Cd  0.87885637  0.81230840  0.67683223     1.59700
Cd1298     Cd  0.92859749  0.80606487  0.58058431     1.59600
O1299       O  0.91463576  0.78656373  0.71305566    -0.80000
O1300       O  0.89374965  0.83394290  0.61259607    -1.90500
Cd1301     Cd  0.90837666  0.87933767  0.63188545     1.59900
O1302       O  0.93848101  0.76517698  0.63977686    -0.80000
O1303       O  0.88412615  0.91400329  0.58747340    -0.78600
C1304       C  0.88100431  0.81105984  0.47642012     0.83900
C1305       C  0.81684469  0.78560889  0.64069108     0.83600
O1306       O  0.83617511  0.88579741  0.58713678    -0.77600
C1307       C  0.86070163  0.87840942  0.72460882     0.84400
O1308       O  0.86086861  0.83151945  0.49863061    -0.77700
C1309       C  0.93256995  0.76441622  0.69073133     0.84500
C1310       C  0.97968850  0.86738555  0.59225455     0.84800
O1311       O  0.97216457  0.83770462  0.57561536    -0.80100
O1312       O  0.91099006  0.86188106  0.88782425    -0.77600
C1313       C  0.93376733  0.94915281  0.83501594     0.83400
O1314       O  0.83957208  0.94722775  0.99527417    -0.78700
O1315       O  0.85423236  0.99390613  0.83600434    -0.80200
O1316       O  0.81336846  0.88511559  0.78027324    -0.80000
O1317       O  0.86761504  0.83891404  0.84461242    -0.78600
Zn1318     Zn  0.89300148  0.90721687  0.91271195     1.55700
O1319       O  0.83868627  0.93041187  0.75206781    -0.80000
Cd1320     Cd  0.83034863  0.87300474  0.85409816     1.59700
Cd1321     Cd  0.81641631  0.94041918  0.91746180     1.59600
O1322       O  0.79006637  0.85647975  0.89955965    -0.80000
O1323       O  0.85135009  0.91543607  0.87830200    -1.90500
Cd1324     Cd  0.86417158  0.94545453  0.81718455     1.59900
O1325       O  0.77382714  0.90771364  0.92464533    -0.80000
O1326       O  0.91262820  0.94493842  0.79830953    -0.78600
C1327       C  0.86449369  0.93254667  0.01919622     0.83900
C1328       C  0.89823119  0.83867782  0.85913830     0.83600
O1329       O  0.92815366  0.93972311  0.88294732    -0.77600
C1330       C  0.83573717  0.89887476  0.75180356     0.84400
O1331       O  0.88503089  0.91349415  0.99381487    -0.77700
C1332       C  0.76781209  0.87620229  0.91807760     0.84500
C1333       C  0.82321999  0.99669048  0.82828776     0.84800
O1334       O  0.80320638  0.97998205  0.85893170    -0.80100
O1335       O  0.80396434  0.68396909  0.33549687    -0.77600
C1336       C  0.71322163  0.73178337  0.39139869     0.83400
O1337       O  0.82550414  0.77275394  0.24947186    -0.78700
O1338       O  0.75616595  0.83741203  0.39781194    -0.80200
O1339       O  0.80141632  0.71947281  0.45730106    -0.80000
O1340       O  0.85279501  0.70787629  0.34739267    -0.78600
Zn1341     Zn  0.77637804  0.72775551  0.32297473     1.55700
O1342       O  0.78838202  0.77199176  0.47801047    -0.80000
Cd1343     Cd  0.82893138  0.73979461  0.39565297     1.59700
Cd1344     Cd  0.81741581  0.80297960  0.32299263     1.59600
O1345       O  0.86594184  0.76516958  0.42787944    -0.80000
O1346       O  0.79458674  0.76629502  0.35788895    -1.90500
Cd1347     Cd  0.76501342  0.78614089  0.41029763     1.59900
O1348       O  0.85381337  0.81393543  0.38865160    -0.80000
O1349       O  0.72109436  0.75967388  0.41267717    -0.78600
C1350       C  0.80648806  0.75031742  0.22640373     0.83900
C1351       C  0.83564550  0.68180508  0.34175866     0.83600
O1352       O  0.73131304  0.71757063  0.35608871    -0.77600
C1353       C  0.78573025  0.74055011  0.48630166     0.84400
O1354       O  0.77809785  0.74201882  0.24604791    -0.77700
C1355       C  0.86857328  0.79651268  0.42576240     0.84500
C1356       C  0.76238927  0.85616010  0.35763700     0.84800
O1357       O  0.78259332  0.84604435  0.32057807    -0.80100
O1358       O  0.75926860  0.78150709  0.66116477    -0.77600
C1359       C  0.66786670  0.80544934  0.63352478     0.83400
O1360       O  0.66822246  0.71929225  0.75455048    -0.78700
O1361       O  0.65581279  0.71855578  0.54994855    -0.80200
O1362       O  0.76632601  0.70360988  0.55331641    -0.80000
O1363       O  0.79004565  0.73504902  0.66046171    -0.78600
Zn1364     Zn  0.71627498  0.76121382  0.68878333     1.55700
O1365       O  0.73608257  0.74875265  0.53276092    -0.80000
Cd1366     Cd  0.75389484  0.70408388  0.63256698     1.59700
Cd1367     Cd  0.67770963  0.69215299  0.67936254     1.59600
O1368       O  0.75859175  0.65795966  0.66337433    -0.80000
O1369       O  0.70922211  0.72331684  0.64596348    -1.90500
Cd1370     Cd  0.69486114  0.74441958  0.58026717     1.59900
O1371       O  0.70577347  0.64566734  0.68748009    -0.80000
O1372       O  0.67584479  0.79097996  0.59054212    -0.78600
C1373       C  0.68789328  0.73851381  0.78251326     0.83900
C1374       C  0.78715187  0.76651985  0.65432968     0.83600
O1375       O  0.67830580  0.79492786  0.67851584    -0.77600
C1376       C  0.76143073  0.72985891  0.52570453     0.84400
O1377       O  0.71693378  0.74594214  0.76520661    -0.77700
C1378       C  0.73676321  0.63728838  0.67981418     0.84500
C1379       C  0.63467896  0.69830490  0.57003783     0.84800
O1380       O  0.63764658  0.68694052  0.61838457    -0.80100
O1381       O  0.68978795  0.92965528  0.60965140    -0.77600
C1382       C  0.64800492  0.83594498  0.62920167     0.83400
O1383       O  0.59326903  0.94495006  0.49855388    -0.78700
O1384       O  0.54062152  0.86346223  0.62419318    -0.80200
O1385       O  0.61927442  0.93535831  0.74305475    -0.80000
O1386       O  0.66781514  0.96435544  0.66883968    -0.78600
Zn1387     Zn  0.64738683  0.90535475  0.58027055     1.55700
O1388       O  0.58021323  0.89714320  0.72762232    -0.80000
Cd1389     Cd  0.62059323  0.95425454  0.66892730     1.59700
Cd1390     Cd  0.56975866  0.94055438  0.57783721     1.59600
O1391       O  0.60164080  0.00067262  0.65766663    -0.80000
O1392       O  0.60684272  0.91849930  0.61663421    -1.90500
Cd1393     Cd  0.58740560  0.87892800  0.65361054     1.59900
O1394       O  0.55343680  0.97810731  0.63804434    -0.80000
O1395       O  0.62241592  0.84044074  0.65872196    -0.78600
C1396       C  0.61904922  0.93088450  0.47553614     0.83900
C1397       C  0.69270671  0.95208796  0.64574562     0.83600
O1398       O  0.65724499  0.85726933  0.59448829    -0.77600
C1399       C  0.60540291  0.90766186  0.75365169     0.84400
O1400       O  0.64019195  0.91318979  0.50158719    -0.77700
C1401       C  0.57106316  0.99794025  0.66757945     0.84500
C1402       C  0.51941654  0.87995588  0.59638680     0.84800
O1403       O  0.52701601  0.90839642  0.57554192    -0.80100
O1404       O  0.58797198  0.88501814  0.91681244    -0.77600
C1405       C  0.56438648  0.78960906  0.89579065     0.83400
O1406       O  0.65070550  0.79652768  0.01205580    -0.78700
O1407       O  0.65282099  0.78257994  0.80369788    -0.80200
O1408       O  0.64612095  0.89621702  0.81876645    -0.80000
O1409       O  0.63355947  0.91403435  0.93530986    -0.78600
Zn1410     Zn  0.60743338  0.84227579  0.94494626     1.55700
O1411       O  0.60941551  0.85630512  0.79602302    -0.80000
Cd1412     Cd  0.66073425  0.88028147  0.89256897     1.59700
Cd1413     Cd  0.67852170  0.80406387  0.93493258     1.59600
O1414       O  0.71050837  0.88480362  0.90687359    -0.80000
O1415       O  0.64527071  0.83392169  0.90273437    -1.90500
Cd1416     Cd  0.62412876  0.81683494  0.83953815     1.59900
O1417       O  0.72511344  0.83348990  0.93582566    -0.80000
O1418       O  0.58170088  0.79226759  0.85402809    -0.78600
C1419       C  0.63159727  0.81788481  0.03726201     0.83900
C1420       C  0.60329410  0.91288671  0.91967237     0.83600
O1421       O  0.57195713  0.80520863  0.93847566    -0.77600
C1422       C  0.62092660  0.88582627  0.79212743     0.84400
O1423       O  0.62676565  0.84672414  0.01755619    -0.77700
C1424       C  0.73262531  0.86400856  0.92248880     0.84500
C1425       C  0.67370000  0.76188217  0.82314417     0.84800
O1426       O  0.68425651  0.76420274  0.87222773    -0.80100
O1427       O  0.94951654  0.80789827  0.84533814    -0.77600
C1428       C  0.53348804  0.77078517  0.89039182     0.83400
O1429       O  0.93064737  0.71760802  0.75251693    -0.78700
O1430       O  0.50210318  0.66590245  0.89613034    -0.80200
O1431       O  0.93743622  0.77146487  0.96104955    -0.80000
O1432       O  0.90128477  0.78212941  0.83999566    -0.78600
Zn1433     Zn  0.97648110  0.76427011  0.82749129     1.55700
O1434       O  0.45811893  0.71928857  0.98317619    -0.80000
Cd1435     Cd  0.91874510  0.74967558  0.89310080     1.59700
Cd1436     Cd  0.93978804  0.68881395  0.82648691     1.59600
O1437       O  0.87878359  0.72239925  0.91307715    -0.80000
O1438       O  0.95879907  0.72652347  0.86330840    -1.90500
Cd1439     Cd  0.98726844  0.70998381  0.92055578     1.59900
O1440       O  0.90401428  0.67494099  0.89088576    -0.80000
O1441       O  0.52598884  0.74741924  0.92276877    -0.78600
C1442       C  0.94839359  0.74088622  0.72924624     0.83900
C1443       C  0.91755556  0.80881026  0.84576961     0.83600
O1444       O  0.02151085  0.77250888  0.85646520    -0.77600
C1445       C  0.95374608  0.75189637  0.99163524     0.84400
O1446       O  0.97557535  0.75168057  0.74984632    -0.77700
C1447       C  0.88356075  0.69169075  0.92100932     0.84500
C1448       C  0.99719911  0.64126761  0.86395980     0.84800
O1449       O  0.97797288  0.65020315  0.82508723    -0.80100
O1450       O  0.98944944  0.70791435  0.15615456    -0.77600
C1451       C  0.57821415  0.69875464  0.10554300     0.83400
O1452       O  0.56357648  0.78459277  0.26189036    -0.78700
O1453       O  0.57706393  0.79945648  0.05019778    -0.80200
O1454       O  0.96499801  0.78045466  0.07163572    -0.80000
O1455       O  0.95725064  0.74954603  0.18411910    -0.78600
Zn1456     Zn  0.52832965  0.73105350  0.18049833     1.55700
O1457       O  0.50576276  0.75295508  0.03538423    -0.80000
Cd1458     Cd  0.98660911  0.78477264  0.14563575     1.59700
Cd1459     Cd  0.56127308  0.80649278  0.18082499     1.59600
O1460       O  0.98195553  0.83401809  0.16923706    -0.80000
O1461       O  0.53119357  0.77371924  0.14887255    -1.90500
Cd1462     Cd  0.54677898  0.76376778  0.07808440     1.59900
O1463       O  0.53371844  0.85363009  0.17324657    -0.80000
O1464       O  0.57675069  0.72303169  0.07335136    -0.78600
C1465       C  0.55010116  0.75854174  0.28508751     0.83900
C1466       C  0.96070699  0.71981829  0.16623725     0.83600
O1467       O  0.56151685  0.69836585  0.14880895    -0.76000
C1468       C  0.47561986  0.76309891  0.03706916     0.84400
O1469       O  0.53353429  0.73671835  0.25894174    -0.77700
C1470       C  0.50216237  0.86093618  0.16979936     0.84500
C1471       C  0.60420950  0.80682998  0.07396357     0.84800
O1472       O  0.60538386  0.80793038  0.12568305    -0.80100
loop_ 
_geom_bond_atom_site_label_1 
_geom_bond_atom_site_label_2 
_geom_bond_distance 
_geom_bond_site_symmetry_2 
_ccdc_geom_bond_type 
O1           C17   1.269       .  A
O1           Zn7   2.031       .  S
C2           O18   1.274       .  A
C2           O15   1.258       .  A
C2          C232   1.446       .  S
O3           C16   1.305       .  A
O3          Cd10   2.230       .  S
O4           C22   1.265       .  A
O4          Cd13   1.969       .  S
O5           C19   1.270       .  A
O5           Cd9   2.024       .  S
O6           C17   1.271       .  A
O6           Cd9   2.009       .  S
Zn7          O18   2.055       .  S
Zn7          O20   1.991       .  S
Zn7          O12   1.902       .  S
O8           C19   1.266       .  A
O8          Cd13   2.007       .  S
Cd9          O11   2.036       .  S
Cd9          O12   1.947       .  S
Cd10         O14   2.208       .  S
Cd10         O23   2.215       .  S
Cd10         O12   1.954       .  S
O11          C21   1.270       .  A
O12         Cd13   1.914       .  S
Cd13         O15   1.976       .  S
O14          C21   1.295       .  A
C16          O20   1.269       .  A
C16         C275   1.487       .  S
C17          C63   1.463       .  S
C19          C42   1.433       .  S
C21         C895   1.497   1_455  S
C22          O23   1.300       .  A
C22         C361   1.472       .  S
O24          C40   1.277       .  A
O24         Zn30   2.083       .  S
C25          O41   1.274       .  A
C25          O38   1.270       .  A
C25         C347   1.450       .  S
O26          C39   1.303       .  A
O26         Cd33   2.226   1_556  S
O27          C45   1.277       .  A
O27         Cd36   2.092       .  S
O28          C42   1.265       .  A
O28         Cd32   1.993       .  S
O29          C40   1.251       .  A
O29         Cd32   1.950       .  S
Zn30         O41   2.004       .  S
Zn30         O43   1.994   1_554  S
Zn30         O35   1.908       .  S
O31          C42   1.269       .  A
O31         Cd36   2.017       .  S
Cd32         O34   2.015       .  S
Cd32         O35   1.980       .  S
Cd33         O37   2.229       .  S
Cd33         O46   2.179       .  S
Cd33         O35   1.967       .  S
O34         C412   1.252       .  A
O35         Cd36   1.975       .  S
Cd36         O38   2.055       .  S
O37         C412   1.295       .  A
C39          O43   1.266       .  A
C39         C136   1.490       .  S
C40         C109   1.443       .  S
C44         O402   1.272       .  A
C44         O405   1.299       .  A
C44          C62   1.489       .  S
C45          O46   1.293       .  A
C45         C183   1.505       .  S
O47          C63   1.270       .  A
O47         Zn53   2.080       .  S
C48          O64   1.270       .  A
C48         O429   1.272   1_545  A
C48         C140   1.438       .  S
O49          C62   1.306       .  A
O49         Cd56   2.225       .  S
O50          C68   1.282       .  A
O50         Cd59   2.111       .  S
O51          C65   1.273       .  A
O51         Cd55   2.054       .  S
O52          C63   1.255       .  A
O52        Cd423   1.975       .  S
Zn53         O64   1.945       .  S
Zn53         O66   2.009       .  S
Zn53        O426   1.900   1_545  S
O54          C65   1.276       .  A
O54         Cd59   2.038       .  S
Cd55         O57   1.982       .  S
Cd55        O420   1.999       .  S
Cd55         O58   1.990       .  S
Cd56         O60   2.243       .  S
Cd56         O69   2.175       .  S
Cd56         O58   1.926       .  S
O57          C67   1.253       .  A
O58        Zn421   1.895       .  S
O58         Cd59   1.944       .  S
Cd59         O61   2.058       .  S
O60          C67   1.300       .  A
O61         C416   1.273       .  A
C62         O434   1.273       .  A
C65         C456   1.443       .  S
O66         C430   1.279   1_545  A
C67         C292   1.494       .  S
C68          O69   1.289       .  A
C68         C252   1.509       .  S
O70          C86   1.266       .  A
O70         Zn76   1.970       .  S
C71          O87   1.275       .  A
C71          O84   1.260       .  A
C71         C186   1.442       .  S
O72          C85   1.298       .  A
O72         Cd79   2.190       .  S
O73          C91   1.272       .  A
O73         Cd82   2.009       .  S
O74          C88   1.270       .  A
O74         Cd78   2.059       .  S
O75         C454   1.274       .  A
O75         Cd78   2.040   1_565  S
Zn76         O87   2.010       .  S
Zn76         O89   2.019       .  S
Zn76        O449   1.876       .  S
O77          C88   1.271   1_565  A
O77         Cd82   2.027   1_565  S
Cd78         O80   2.063       .  S
Cd78         O81   1.980       .  S
Cd79         O83   2.141       .  S
Cd79         O92   2.212       .  S
Cd79         O81   1.941       .  S
O80          C90   1.275       .  A
O81        Zn444   1.866   1_545  S
O81         Cd82   1.941       .  S
Cd82        O452   2.026   1_545  S
O83          C90   1.290       .  A
O84        Cd450   2.011       .  S
C85         O457   1.275   1_545  A
C85         C597   1.497       .  S
C86         O443   1.272       .  A
C86         C293   1.443       .  S
C88         C433   1.446   1_545  S
O89         C453   1.275       .  A
C90         C274   1.483       .  S
C91          O92   1.300       .  A
C91         C154   1.486       .  S
O93         C845   1.272       .  A
O93         Zn99   1.993       .  S
C94         O110   1.278       .  A
C94         O107   1.257       .  A
C94         C163   1.439       .  S
O95         C108   1.304       .  A
O95        Cd102   2.209       .  S
O96         C114   1.256       .  A
O96        Cd105   2.035       .  S
O97         C847   1.269       .  A
O97        Cd837   2.058       .  S
O98         C477   1.274       .  A
O98        Cd837   2.055       .  S
Zn99        O110   2.039       .  S
Zn99        O112   2.062       .  S
Zn99        O472   1.901   1_545  S
O100        C111   1.263       .  A
O100       Cd105   2.014       .  S
Cd101       O833   2.024       .  S
Cd101       O834   2.077       .  S
Cd101       O839   2.076       .  S
Cd101       O104   1.986       .  S
Cd102       O106   2.154       .  S
Cd102       O115   2.237       .  S
Cd102       O104   1.966       .  S
O103        C849   1.274   1_455  A
O103       Cd837   2.052       .  S
O104       Zn467   1.900       .  S
O104       Cd105   2.006       .  S
Cd105       O475   1.974       .  S
O106        C113   1.291       .  A
O107       Cd473   1.977   1_545  S
C108        O480   1.275       .  A
C108        C528   1.503       .  S
C109        O829   1.272       .  A
C109        O466   1.274   1_545  A
C111        O833   1.265       .  A
C111       C1238   1.448   1_554  S
O112        C476   1.281   1_545  A
C113        O839   1.276       .  A
C113       C1102   1.490       .  S
C114        O115   1.296       .  A
C114        C223   1.506       .  S
O116        C132   1.273       .  A
O116       Zn122   2.054       .  S
C117        O133   1.265       .  A
C117        O498   1.270       .  A
C117        C209   1.451       .  S
O118        C131   1.304       .  A
O118       Cd125   2.226       .  S
O119        C873   1.278       .  A
O119       Cd128   2.089       .  S
O120        C134   1.267   1_455  A
O120       Cd124   2.013   1_565  S
O121        C132   1.253       .  A
O121       Cd492   1.990       .  S
Zn122       O135   1.997       .  S
Zn122       O869   1.968   1_455  S
Zn122       O495   1.885       .  S
O123        C870   1.277   1_545  A
O123       Cd128   2.068       .  S
Cd124       O126   1.989       .  S
Cd124       O489   1.996   1_545  S
Cd124       O127   1.942       .  S
Cd125       O129   2.231       .  S
Cd125       O138   2.215       .  S
Cd125       O127   1.962       .  S
O126        C136   1.270       .  A
O127       Zn490   1.910   1_545  S
O127       Cd864   1.979   1_455  S
Cd128       O130   2.029       .  S
Cd128       O863   1.966       .  S
O129        C136   1.301       .  A
O130        C485   1.271   1_545  A
C131        O503   1.277   1_545  A
C131        C665   1.502   1_545  S
C132        C316   1.444       .  S
O133       Zn858   1.997       .  S
C134        O859   1.274   1_565  A
C134       C1215   1.450       .  S
O135        C499   1.269       .  A
C137        O138   1.297   1_655  A
C137        O855   1.279       .  A
C137       C1080   1.516       .  S
O139        C155   1.278       .  A
O139       Zn145   2.055       .  S
C140        O156   1.276       .  A
C140        O153   1.252       .  A
O141        C154   1.304       .  A
O141       Cd148   2.214       .  S
O142        C160   1.249   1_565  A
O142       Cd151   2.003   1_565  S
O143        C157   1.275       .  A
O143       Cd147   2.031       .  S
O144        C155   1.271       .  A
O144       Cd147   2.037       .  S
Zn145       O156   2.066       .  S
Zn145       O158   2.003       .  S
Zn145       O150   1.907       .  S
O146        C157   1.263       .  A
O146       Cd151   1.995       .  S
Cd147       O149   2.103       .  S
Cd147       O150   1.957       .  S
Cd148       O152   2.151       .  S
Cd148       O161   2.244       .  S
Cd148       O150   1.961       .  S
O149        C159   1.277       .  A
O150       Cd151   1.994       .  S
Cd151       O153   1.943       .  S
O152        C159   1.287       .  A
C154        O158   1.271       .  A
C155        C247   1.462       .  S
C157        C180   1.433       .  S
C159        C757   1.499       .  S
C160        O161   1.293       .  A
C160        C476   1.506   1_545  S
O162        C178   1.274       .  A
O162       Zn168   2.030       .  S
C163        O179   1.261       .  A
C163        O176   1.270       .  A
O164        C177   1.304       .  A
O164       Cd171   2.208   1_556  S
O165        C183   1.274       .  A
O165       Cd174   2.073       .  S
O166        C180   1.266       .  A
O166       Cd170   2.000       .  S
O167        C178   1.257       .  A
O167       Cd170   1.999       .  S
Zn168       O179   1.967       .  S
Zn168       O181   1.990   1_554  S
Zn168       O173   1.905       .  S
O169        C180   1.272       .  A
O169       Cd174   2.045       .  S
Cd170       O172   1.988       .  S
Cd170       O173   1.932       .  S
Cd171       O175   2.233       .  S
Cd171       O184   2.195       .  S
Cd171       O173   1.958       .  S
O172        C182   1.269       .  A
O173       Cd174   1.980       .  S
Cd174       O176   2.034       .  S
O175        C182   1.302       .  A
C177        O181   1.275       .  A
C177        C343   1.488       .  S
C178        C362   1.447       .  S
C182        C246   1.486       .  S
C183        O184   1.293       .  A
O185        C201   1.274       .  A
O185       Zn191   2.009       .  S
C186        O202   1.264       .  A
C186        O199   1.273       .  A
O187        C200   1.302       .  A
O187       Cd194   2.202       .  S
O188        C206   1.276       .  A
O188       Cd197   2.053       .  S
O189        C203   1.270       .  A
O189       Cd193   2.027       .  S
O190        C201   1.261       .  A
O190       Cd193   2.013       .  S
Zn191       O202   1.956       .  S
Zn191       O204   2.004       .  S
Zn191       O196   1.879       .  S
O192        C203   1.271       .  A
O192       Cd197   2.068       .  S
Cd193       O195   2.018       .  S
Cd193       O196   1.934       .  S
Cd194       O198   2.219       .  S
Cd194       O207   2.152       .  S
Cd194       O196   1.949       .  S
O195        C205   1.273       .  A
O196       Cd197   1.987       .  S
Cd197       O199   2.052       .  S
O198        C205   1.299       .  A
C200        O204   1.273       .  A
C200        C251   1.494       .  S
C201        C270   1.442       .  S
C203        C226   1.451       .  S
C205        C338   1.493       .  S
C206        O207   1.289       .  A
C206       C1034   1.483       .  S
O208        C224   1.272       .  A
O208       Zn214   1.968       .  S
C209        O225   1.272       .  A
C209        O222   1.253       .  A
O210        C223   1.309       .  A
O210       Cd217   2.240   1_554  S
O211        C229   1.250       .  A
O211       Cd220   1.995       .  S
O212        C226   1.268       .  A
O212       Cd216   2.015       .  S
O213        C224   1.273       .  A
O213       Cd216   2.079       .  S
Zn214       O225   2.064       .  S
Zn214       O227   2.018   1_556  S
Zn214       O219   1.887       .  S
O215        C226   1.269       .  A
O215       Cd220   2.071       .  S
Cd216       O218   2.099       .  S
Cd216       O219   1.957       .  S
Cd217       O221   2.179       .  S
Cd217       O230   2.231       .  S
Cd217       O219   1.953       .  S
O218        C228   1.280       .  A
O219       Cd220   2.019       .  S
Cd220       O222   1.964       .  S
O221        C228   1.290       .  A
C223        O227   1.279       .  A
C224        C339   1.446       .  S
C228        C320   1.507       .  S
C229        O230   1.295       .  A
C229        C453   1.496       .  S
O231        C247   1.276       .  A
O231       Zn237   2.105       .  S
C232        O248   1.270       .  A
C232        O245   1.272       .  A
O233        C246   1.305       .  A
O233       Cd240   2.225       .  S
O234        C252   1.280       .  A
O234       Cd243   2.098       .  S
O235        C249   1.271       .  A
O235       Cd239   2.060       .  S
O236        C247   1.255       .  A
O236       Cd239   1.991       .  S
Zn237       O248   1.957       .  S
Zn237       O250   2.007       .  S
Zn237       O242   1.891       .  S
O238        C249   1.269       .  A
O238       Cd243   2.016       .  S
Cd239       O241   1.996       .  S
Cd239       O242   2.003       .  S
Cd240       O244   2.227       .  S
Cd240       O253   2.185       .  S
Cd240       O242   1.939       .  S
O241        C251   1.254       .  A
O242       Cd243   1.958       .  S
Cd243       O245   2.078       .  S
O244        C251   1.297       .  A
C246        O250   1.271       .  A
C249        C272   1.443       .  S
C252        O253   1.292       .  A
O254        C270   1.266       .  A
O254       Zn260   1.966       .  S
C255        O271   1.273       .  A
C255        O268   1.260       .  A
C255        C278   1.439       .  S
O256        C269   1.300       .  A
O256       Cd263   2.191       .  S
O257        C275   1.270       .  A
O257       Cd266   1.999       .  S
O258        C272   1.269       .  A
O258       Cd262   2.055       .  S
O259        C270   1.273       .  A
O259       Cd262   2.053       .  S
Zn260       O271   2.005       .  S
Zn260       O273   2.000       .  S
Zn260       O265   1.870       .  S
O261        C272   1.270       .  A
O261       Cd266   2.022       .  S
Cd262       O264   2.046       .  S
Cd262       O265   1.981       .  S
Cd263       O267   2.149       .  S
Cd263       O276   2.217       .  S
Cd263       O265   1.942       .  S
O264        C274   1.274       .  A
O265       Cd266   1.930       .  S
Cd266       O268   2.014       .  S
O267        C274   1.290       .  A
C269        O273   1.273       .  A
C269        C321   1.490       .  S
C275        O276   1.298       .  A
O277        C293   1.274       .  A
O277       Zn283   2.019       .  S
C278        O294   1.264       .  A
C278        O291   1.274       .  A
O279        C292   1.302       .  A
O279       Cd286   2.200       .  S
O280        C298   1.275       .  A
O280       Cd289   2.058       .  S
O281        C295   1.269       .  A
O281       Cd285   2.021       .  S
O282        C293   1.259       .  A
O282       Cd285   2.007       .  S
Zn283       O294   1.951       .  S
Zn283       O296   2.006       .  S
Zn283       O288   1.882       .  S
O284        C295   1.271       .  A
O284       Cd289   2.061       .  S
Cd285       O287   1.999       .  S
Cd285       O288   1.931       .  S
Cd286       O290   2.237       .  S
Cd286       O299   2.171       .  S
Cd286       O288   1.945       .  S
O287        C297   1.272       .  A
O288       Cd289   1.987       .  S
Cd289       O291   2.056       .  S
O290        C297   1.301       .  A
C292        O296   1.273       .  A
C295        C318   1.447       .  S
C297        C499   1.493       .  S
C298        O299   1.294       .  A
C298        C942   1.491   1_455  S
O300        C316   1.271       .  A
O300       Zn306   1.983       .  S
C301        O317   1.274       .  A
C301        O314   1.255       .  A
C301        C324   1.462       .  S
O302        C315   1.304       .  A
O302       Cd309   2.204   1_554  S
O303        C321   1.252       .  A
O303       Cd312   1.994       .  S
O304        C318   1.274       .  A
O304       Cd308   2.022       .  S
O305        C316   1.272       .  A
O305       Cd308   2.054       .  S
Zn306       O317   2.090       .  S
Zn306       O319   2.004   1_556  S
Zn306       O311   1.897       .  S
O307        C318   1.272       .  A
O307       Cd312   2.054       .  S
Cd308       O310   2.096       .  S
Cd308       O311   1.949       .  S
Cd309       O313   2.184       .  S
Cd309       O322   2.219       .  S
Cd309       O311   1.934       .  S
O310        C320   1.279       .  A
O311       Cd312   2.002       .  S
Cd312       O314   2.003       .  S
O313        C320   1.290       .  A
C315        O319   1.276       .  A
C315        C367   1.480       .  S
C321        O322   1.295       .  A
O323        C339   1.277       .  A
O323       Zn329   2.085       .  S
C324        O337   1.273       .  A
C324       O1076   1.276       .  A
O325        C338   1.302       .  A
O325       Cd332   2.223       .  S
O326       C1080   1.279       .  A
O326      Cd1071   2.112       .  S
O327        C341   1.263       .  A
O327       Cd331   2.008       .  S
O328        C339   1.252       .  A
O328       Cd331   1.954       .  S
Zn329       O340   2.028       .  S
Zn329       O342   2.002       .  S
Zn329       O334   1.910       .  S
O330       C1077   1.273       .  A
O330      Cd1071   2.026       .  S
Cd331       O333   2.016       .  S
Cd331       O334   2.003       .  S
Cd332       O336   2.206       .  S
Cd332       O345   2.193       .  S
Cd332       O334   1.982       .  S
O333        C343   1.250       .  A
O334       Cd335   1.979       .  S
Cd335      O1062   2.094       .  S
Cd335      O1066   2.020       .  S
Cd335      O1073   2.055       .  S
O336        C343   1.291       .  A
O337      Cd1071   2.054   1_455  S
C338        O342   1.270       .  A
O340       C1060   1.278       .  A
C341       O1066   1.271       .  A
C341       C1100   1.440   1_556  S
C344        O345   1.294       .  A
C344       O1062   1.276       .  A
C344        C873   1.511       .  S
O346        C362   1.268       .  A
O346      Zn1088   1.999       .  S
C347        O363   1.277       .  A
C347        O360   1.260       .  A
O348        C361   1.297       .  A
O348       Cd355   2.177       .  S
O349        C367   1.273       .  A
O349       Cd358   2.018       .  S
O350       C1100   1.274       .  A
O350       Cd354   2.043       .  S
O351        C362   1.268       .  A
O351       Cd354   2.025       .  S
Zn352       O363   2.054       .  S
Zn352       O365   1.996       .  S
Zn352      O1082   1.981   1_455  S
Zn352       O357   1.871       .  S
O353        C364   1.268   1_455  A
O353       Cd358   2.015       .  S
Cd354       O356   2.044       .  S
Cd354      O1093   1.966       .  S
Cd355       O359   2.150       .  S
Cd355       O368   2.198       .  S
Cd355       O357   1.945       .  S
O356       C1102   1.273       .  A
O357       Cd358   1.928       .  S
O357      Cd1090   1.970   1_455  S
Cd358       O360   1.998       .  S
O359        C366   1.290       .  A
C361        O365   1.267       .  A
C364       O1086   1.274       .  A
C364       C1077   1.443   1_554  S
C366       O1092   1.273   1_455  A
C366        C849   1.481   1_455  S
C367        O368   1.297       .  A
O369        C385   1.272       .  A
O369       Zn375   1.994       .  S
C370        O386   1.274       .  A
C370        O383   1.253       .  A
C370        C600   1.453       .  S
O371        C384   1.305       .  A
O371       Cd378   2.218       .  S
O372        C390   1.251       .  A
O372       Cd381   1.995       .  S
O373        C387   1.274       .  A
O373       Cd377   2.038       .  S
O374        C385   1.274       .  A
O374       Cd377   2.068       .  S
Zn375       O386   2.071       .  S
Zn375       O388   2.011       .  S
Zn375       O380   1.901       .  S
O376        C387   1.273       .  A
O376       Cd381   2.068       .  S
Cd377       O379   2.128       .  S
Cd377       O380   1.957       .  S
Cd378       O382   2.194       .  S
Cd378       O391   2.226       .  S
Cd378       O380   1.939       .  S
O379        C389   1.284       .  A
O380       Cd381   2.018       .  S
Cd381       O383   2.004       .  S
O382        C389   1.292       .  A
C384        O388   1.275       .  A
C384        C643   1.489       .  S
C385        C431   1.451       .  S
C387        C410   1.449       .  S
C389       C1263   1.523   1_455  S
C390        O391   1.296       .  A
C390        C729   1.491       .  S
O392        C408   1.274       .  A
O392       Zn398   2.006       .  S
C393        O409   1.263       .  A
C393        O406   1.273       .  A
C393        C715   1.438       .  S
O394        C407   1.298   1_554  A
O394       Cd401   2.176       .  S
O395        C413   1.275       .  A
O395       Cd404   2.057       .  S
O396        C410   1.270       .  A
O396       Cd400   2.019       .  S
O397        C408   1.262       .  A
O397       Cd400   2.024       .  S
Zn398       O409   1.948       .  S
Zn398       O411   2.002       .  S
Zn398       O403   1.873       .  S
O399        C410   1.272       .  A
O399       Cd404   2.072       .  S
Cd400       O402   2.010       .  S
Cd400       O403   1.935       .  S
Cd401       O405   2.220       .  S
Cd401       O414   2.129       .  S
Cd401       O403   1.943       .  S
O403       Cd404   1.989       .  S
Cd404       O406   2.051       .  S
C407        O411   1.272   1_556  A
C407        C504   1.488       .  S
C408        C477   1.444       .  S
C412        C430   1.493   1_545  S
C413        O414   1.288       .  A
C413        C551   1.477       .  S
O415        C431   1.275       .  A
O415       Zn421   2.073       .  S
C416        O432   1.272       .  A
C416        C508   1.446       .  S
O417        C430   1.308       .  A
O417       Cd424   2.223       .  S
O418        C436   1.280       .  A
O418       Cd427   2.108       .  S
O419        C433   1.269   1_545  A
O419       Cd423   2.063       .  S
O420        C431   1.253       .  A
Zn421       O432   1.989       .  S
Zn421       O434   2.006       .  S
O422        C433   1.268       .  A
O422       Cd427   2.014       .  S
Cd423       O425   2.004   1_545  S
Cd423       O426   2.027   1_545  S
Cd424       O428   2.240       .  S
Cd424       O437   2.193       .  S
Cd424       O426   1.941       .  S
O425        C435   1.252       .  A
O426       Cd427   1.955       .  S
Cd427       O429   2.075       .  S
O428        C435   1.299       .  A
C435        C660   1.500       .  S
C436        O437   1.292       .  A
C436        C620   1.515       .  S
O438        C454   1.263       .  A
O438       Zn444   1.970       .  S
C439        O455   1.271       .  A
C439        O452   1.261       .  A
C439        C554   1.442       .  S
O440        C453   1.301       .  A
O440       Cd447   2.191       .  S
O441        C459   1.270       .  A
O441       Cd450   1.998       .  S
O442        C456   1.271       .  A
O442       Cd446   2.068       .  S
O443       Cd446   2.047       .  S
Zn444       O455   1.999       .  S
Zn444       O457   2.015       .  S
O445        C456   1.267       .  A
O445       Cd450   2.007       .  S
Cd446       O448   2.045       .  S
Cd446       O449   1.990       .  S
Cd447       O451   2.143       .  S
Cd447       O460   2.245       .  S
Cd447       O449   1.942       .  S
O448        C458   1.272       .  A
O449       Cd450   1.931       .  S
O451        C458   1.291       .  A
C454        C661   1.438       .  S
C458        C642   1.476       .  S
C459        O460   1.301       .  A
C459        C522   1.498       .  S
O461       C1213   1.273       .  A
O461       Zn467   1.998       .  S
C462        O478   1.277       .  A
C462        O475   1.257       .  A
C462        C531   1.433       .  S
O463        C476   1.301       .  A
O463       Cd470   2.186       .  S
O464        C482   1.254       .  A
O464       Cd473   2.013       .  S
O465       C1215   1.268   1_554  A
O465      Cd1205   2.023       .  S
O466      Cd1205   2.063   1_455  S
Zn467       O478   2.036       .  S
Zn467       O480   2.029       .  S
O468        C479   1.260       .  A
O468       Cd473   2.024   1_556  S
Cd469      O1201   2.022       .  S
Cd469      O1202   2.043       .  S
Cd469      O1207   2.097       .  S
Cd469       O472   1.988       .  S
Cd470       O474   2.124       .  S
Cd470       O483   2.217       .  S
Cd470       O472   1.975       .  S
O471       C1217   1.278   1_455  A
O471      Cd1205   2.107   1_455  S
O472       Cd473   2.029       .  S
O474        C481   1.284       .  A
C477       O1197   1.266       .  A
C479       O1201   1.268   1_556  A
C479        C870   1.455       .  S
C481       O1207   1.276       .  A
C481       C1470   1.489       .  S
C482        O483   1.290       .  A
C482        C591   1.504       .  S
O484        C500   1.275       .  A
O484       Zn490   2.038       .  S
C485        O501   1.261       .  A
C485        C577   1.435       .  S
O486        C499   1.306       .  A
O486       Cd493   2.237       .  S
O487       C1241   1.273       .  A
O487       Cd496   2.045       .  S
O488        C502   1.273       .  A
O488       Cd492   2.068       .  S
O489        C500   1.257       .  A
Zn490      O1237   1.970   1_455  S
Zn490       O503   2.013       .  S
O491       C1238   1.275       .  A
O491       Cd496   2.053       .  S
Cd492       O494   1.986       .  S
Cd492       O495   2.003       .  S
Cd493       O497   2.225       .  S
Cd493       O506   2.172       .  S
Cd493       O495   1.941       .  S
O494        C504   1.251       .  A
O495      Cd1232   1.957       .  S
Cd496       O498   2.008       .  S
Cd496      O1231   1.942       .  S
O497        C504   1.296       .  A
C500        C684   1.446       .  S
O501      Zn1226   1.963       .  S
C502       O1227   1.271       .  A
C502        C847   1.447   1_556  S
C505       O1223   1.279       .  A
C505        O506   1.290       .  A
C505       C1448   1.502   1_455  S
O507        C523   1.272       .  A
O507       Zn513   2.004       .  S
C508        O524   1.274       .  A
C508        O521   1.254       .  A
O509        C522   1.308       .  A
O509       Cd516   2.250       .  S
O510        C528   1.253       .  A
O510       Cd519   1.990       .  S
O511        C525   1.271       .  A
O511       Cd515   2.023       .  S
O512        C523   1.272       .  A
O512       Cd515   2.057       .  S
Zn513       O524   2.061       .  S
Zn513       O526   2.009       .  S
Zn513       O518   1.899       .  S
O514        C525   1.274       .  A
O514       Cd519   2.070       .  S
Cd515       O517   2.088       .  S
Cd515       O518   1.944       .  S
Cd516       O520   2.192       .  S
Cd516       O529   2.263       .  S
Cd516       O518   1.936       .  S
O517        C527   1.278       .  A
O518       Cd519   2.002       .  S
Cd519       O521   1.996       .  S
O520        C527   1.292       .  A
C522        O526   1.273       .  A
C523        C615   1.452       .  S
C525        C548   1.449       .  S
C527       C1125   1.510       .  S
C528        O529   1.302       .  A
O530        C546   1.272       .  A
O530       Zn536   1.984       .  S
C531        O547   1.261       .  A
C531        O544   1.276       .  A
O532        C545   1.299   1_554  A
O532       Cd539   2.189       .  S
O533        C551   1.275       .  A
O533       Cd542   2.052       .  S
O534        C548   1.271       .  A
O534       Cd538   2.032       .  S
O535        C546   1.265       .  A
O535       Cd538   2.035       .  S
Zn536       O547   1.945       .  S
Zn536       O549   2.008       .  S
Zn536       O541   1.863       .  S
O537        C548   1.270       .  A
O537       Cd542   2.065       .  S
Cd538       O540   2.006       .  S
Cd538       O541   1.929       .  S
Cd539       O543   2.208       .  S
Cd539       O552   2.130       .  S
Cd539       O541   1.936       .  S
O540        C550   1.272       .  A
O541       Cd542   1.971       .  S
Cd542       O544   2.052       .  S
O543        C550   1.297       .  A
C545        O549   1.272   1_556  A
C545        C711   1.494       .  S
C546        C730   1.441       .  S
C550        C614   1.483       .  S
C551        O552   1.288       .  A
O553        C569   1.273       .  A
O553       Zn559   2.016       .  S
C554        O570   1.264       .  A
C554        O567   1.272       .  A
O555        C568   1.306       .  A
O555       Cd562   2.217       .  S
O556        C574   1.279       .  A
O556       Cd565   2.071       .  S
O557        C571   1.266       .  A
O557       Cd561   2.011       .  S
O558        C569   1.258       .  A
O558       Cd561   1.989       .  S
Zn559       O570   1.956       .  S
Zn559       O572   1.983       .  S
Zn559       O564   1.889       .  S
O560        C571   1.278       .  A
O560       Cd565   2.069       .  S
Cd561       O563   1.989       .  S
Cd561       O564   1.930       .  S
Cd562       O566   2.240       .  S
Cd562       O575   2.172       .  S
Cd562       O564   1.948       .  S
O563        C573   1.270       .  A
O564       Cd565   1.969       .  S
Cd565       O567   2.056       .  S
O566        C573   1.302       .  A
C568        O572   1.271       .  A
C568        C619   1.492       .  S
C569        C638   1.439       .  S
C571        C594   1.455       .  S
C573        C706   1.490       .  S
C574        O575   1.292       .  A
C574       C1402   1.491       .  S
O576        C592   1.274       .  A
O576       Zn582   2.018       .  S
C577        O593   1.278       .  A
C577        O590   1.254       .  A
O578        C591   1.299   1_556  A
O578       Cd585   2.180       .  S
O579        C597   1.254       .  A
O579       Cd588   2.013   1_545  S
O580        C594   1.267       .  A
O580       Cd584   2.017       .  S
O581        C592   1.271       .  A
O581       Cd584   2.032       .  S
Zn582       O593   2.041       .  S
Zn582       O595   2.068       .  S
Zn582       O587   1.906       .  S
O583        C594   1.260       .  A
O583       Cd588   2.017       .  S
Cd584       O586   2.074       .  S
Cd584       O587   1.980       .  S
Cd585       O589   2.135       .  S
Cd585       O598   2.201       .  S
Cd585       O587   1.985       .  S
O586        C596   1.273       .  A
O587       Cd588   2.032       .  S
Cd588       O590   1.958       .  S
O589        C596   1.285       .  A
C591        O595   1.283   1_554  A
C592        C707   1.445       .  S
C596        C688   1.483       .  S
C597        O598   1.289   1_545  A
O599        C615   1.273       .  A
O599       Zn605   2.073       .  S
C600        O616   1.270       .  A
C600        O613   1.274       .  A
O601        C614   1.304       .  A
O601       Cd608   2.214       .  S
O602        C620   1.281       .  A
O602       Cd611   2.109       .  S
O603        C617   1.273       .  A
O603       Cd607   2.054       .  S
O604        C615   1.253       .  A
O604       Cd607   1.998       .  S
Zn605       O616   1.993       .  S
Zn605       O618   2.003       .  S
Zn605       O610   1.904       .  S
O606        C617   1.273       .  A
O606       Cd611   2.022       .  S
Cd607       O609   1.991       .  S
Cd607       O610   2.011       .  S
Cd608       O612   2.237       .  S
Cd608       O621   2.192       .  S
Cd608       O610   1.942       .  S
O609        C619   1.251       .  A
O610       Cd611   1.955       .  S
Cd611       O613   2.069       .  S
O612        C619   1.299       .  A
C614        O618   1.274       .  A
C617        C640   1.445       .  S
C620        O621   1.292       .  A
O622        C638   1.266       .  A
O622       Zn628   1.975       .  S
C623        O639   1.273       .  A
C623        O636   1.263       .  A
C623        C646   1.444       .  S
O624        C637   1.301       .  A
O624       Cd631   2.204       .  S
O625        C643   1.273       .  A
O625       Cd634   2.015       .  S
O626        C640   1.270       .  A
O626       Cd630   2.051       .  S
O627        C638   1.270       .  A
O627       Cd630   2.030       .  S
Zn628       O639   2.012       .  S
Zn628       O641   2.005       .  S
Zn628       O633   1.860       .  S
O629        C640   1.270       .  A
O629       Cd634   2.026       .  S
Cd630       O632   2.024       .  S
Cd630       O633   1.974       .  S
Cd631       O635   2.155       .  S
Cd631       O644   2.222       .  S
Cd631       O633   1.942       .  S
O632        C642   1.270       .  A
O633       Cd634   1.933       .  S
Cd634       O636   2.027       .  S
O635        C642   1.291       .  A
C637        O641   1.271       .  A
C637        C689   1.487       .  S
C643        O644   1.300       .  A
O645        C661   1.277       .  A
O645       Zn651   2.045       .  S
C646        O662   1.270       .  A
C646        O659   1.267       .  A
O647        C660   1.307       .  A
O647       Cd654   2.226       .  S
O648        C666   1.268       .  A
O648       Cd657   2.034       .  S
O649        C663   1.266       .  A
O649       Cd653   2.006       .  S
O650        C661   1.253       .  A
O650       Cd653   1.969       .  S
Zn651       O662   1.998       .  S
Zn651       O664   2.001       .  S
Zn651       O656   1.911       .  S
O652        C663   1.267       .  A
O652       Cd657   2.000       .  S
Cd653       O655   2.029       .  S
Cd653       O656   1.987       .  S
Cd654       O658   2.229       .  S
Cd654       O667   2.156       .  S
Cd654       O656   1.980       .  S
O655        C665   1.253       .  A
O656       Cd657   1.961       .  S
Cd657       O659   2.033       .  S
O658        C665   1.293       .  A
C660        O664   1.274       .  A
C663        C686   1.429       .  S
C666        O667   1.288       .  A
C666       C1310   1.478   1_455  S
O668        C684   1.269       .  A
O668       Zn674   2.004       .  S
C669        O685   1.277       .  A
C669        O682   1.256       .  A
C669        C692   1.445       .  S
O670        C683   1.306       .  A
O670       Cd677   2.241   1_554  S
O671        C689   1.263       .  A
O671       Cd680   1.967       .  S
O672        C686   1.276       .  A
O672       Cd676   2.053       .  S
O673        C684   1.266       .  A
O673       Cd676   2.016       .  S
Zn674       O685   2.071       .  S
Zn674       O687   1.991   1_556  S
Zn674       O679   1.884       .  S
O675        C686   1.264       .  A
O675       Cd680   1.990       .  S
Cd676       O678   2.034       .  S
Cd676       O679   1.953       .  S
Cd677       O681   2.182       .  S
Cd677       O690   2.246       .  S
Cd677       O679   1.947       .  S
O678        C688   1.273       .  A
O679       Cd680   1.897       .  S
Cd680       O682   1.966       .  S
O681        C688   1.294       .  A
C683        O687   1.265       .  A
C683        C735   1.489       .  S
C689        O690   1.303       .  A
O691        C707   1.276       .  A
O691       Zn697   2.081       .  S
C692       O1444   1.272       .  A
C692        O705   1.272       .  A
O693        C706   1.305       .  A
O693       Cd700   2.226       .  S
O694       C1448   1.283   1_455  A
O694      Cd1439   2.104   1_455  S
O695        C709   1.270       .  A
O695       Cd699   2.038       .  S
O696        C707   1.253       .  A
O696       Cd699   1.969       .  S
Zn697       O708   1.973       .  S
Zn697       O710   1.999       .  S
Zn697       O702   1.890       .  S
O698       C1445   1.273       .  A
O698      Cd1439   2.033       .  S
Cd699       O701   1.993       .  S
Cd699       O702   1.995       .  S
Cd700       O704   2.231       .  S
Cd700       O713   2.147       .  S
Cd700       O702   1.936       .  S
O701        C711   1.251       .  A
O702       Cd703   1.956       .  S
Cd703      O1430   2.099       .  S
Cd703      O1434   2.025       .  S
Cd703      O1441   2.071       .  S
O704        C711   1.295       .  A
O705      Cd1439   2.081   1_455  S
C706        O710   1.268       .  A
O708       C1428   1.271       .  A
C709       O1434   1.273       .  A
C709       C1468   1.436   1_556  S
C712       O1430   1.280       .  A
C712        O713   1.288       .  A
C712       C1241   1.492       .  S
O714        C730   1.265       .  A
O714      Zn1456   1.963       .  S
C715        O731   1.273       .  A
C715        O728   1.260       .  A
O716        C729   1.303       .  A
O716       Cd723   2.201       .  S
O717        C735   1.268       .  A
O717       Cd726   2.002       .  S
O718       C1468   1.270       .  A
O718       Cd722   2.052       .  S
O719        C730   1.272       .  A
O719       Cd722   2.055       .  S
Zn720      O1450   1.969   1_455  S
Zn720       O731   1.998       .  S
Zn720       O733   1.994       .  S
Zn720       O725   1.876       .  S
O721        C732   1.268   1_455  A
O721       Cd726   2.007       .  S
Cd722       O724   2.037       .  S
Cd722      O1461   1.982       .  S
Cd723       O727   2.172       .  S
Cd723       O736   2.221       .  S
Cd723       O725   1.953       .  S
O724       C1470   1.272       .  A
O725      Cd1458   1.992   1_455  S
O725       Cd726   1.939       .  S
Cd726       O728   2.013       .  S
O727        C734   1.291       .  A
C729        O733   1.273       .  A
C732       O1454   1.269       .  A
C732       C1445   1.438   1_554  S
C734       O1460   1.275   1_455  A
C734       C1217   1.493   1_455  S
C735        O736   1.299       .  A
O737        C753   1.269       .  A
O737       Zn743   2.035       .  S
C738        O754   1.272       .  A
C738        O751   1.261       .  A
C738        C968   1.445       .  S
O739        C752   1.302       .  A
O739       Cd746   2.214       .  S
O740        C758   1.269       .  A
O740       Cd749   2.006       .  S
O741        C755   1.271       .  A
O741       Cd745   2.030       .  S
O742        C753   1.271       .  A
O742       Cd745   2.014       .  S
Zn743       O754   2.037       .  S
Zn743       O756   1.983       .  S
Zn743       O748   1.903       .  S
O744        C755   1.267       .  A
O744       Cd749   2.009       .  S
Cd745       O747   2.044       .  S
Cd745       O748   1.956       .  S
Cd746       O750   2.208       .  S
Cd746       O759   2.210       .  S
Cd746       O748   1.946       .  S
O747        C757   1.271       .  A
O748       Cd749   1.921       .  S
Cd749       O751   1.990       .  S
O750        C757   1.296       .  A
C752        O756   1.269       .  A
C752       C1011   1.485       .  S
C753        C799   1.467       .  S
C755        C778   1.433       .  S
C758        O759   1.299       .  A
C758       C1097   1.482       .  S
O760        C776   1.278       .  A
O760       Zn766   2.076       .  S
C761        O777   1.273       .  A
C761        O774   1.269       .  A
C761       C1083   1.450       .  S
O762        C775   1.302       .  A
O762       Cd769   2.209   1_556  S
O763        C781   1.276       .  A
O763       Cd772   2.083       .  S
O764        C778   1.265       .  A
O764       Cd768   2.004       .  S
O765        C776   1.251       .  A
O765       Cd768   1.932       .  S
Zn766       O777   1.992       .  S
Zn766       O779   1.996   1_554  S
Zn766       O771   1.905       .  S
O767        C778   1.272       .  A
O767       Cd772   2.017       .  S
Cd768       O770   2.008   1_545  S
Cd768       O771   1.983       .  S
Cd769       O773   2.230       .  S
Cd769       O782   2.144       .  S
Cd769       O771   1.957       .  S
O770       C1148   1.251   1_565  A
O771       Cd772   1.966       .  S
Cd772       O774   2.058       .  S
O773       C1148   1.295       .  A
C775        O779   1.266       .  A
C775        C872   1.484       .  S
C776        C845   1.435       .  S
C780       O1138   1.274       .  A
C780       O1141   1.299       .  A
C780        C798   1.490       .  S
C781        O782   1.288       .  A
C781        C919   1.490       .  S
O783        C799   1.271       .  A
O783       Zn789   2.089       .  S
C784        O800   1.270       .  A
C784       O1165   1.271   1_545  A
C784        C876   1.430       .  S
O785        C798   1.306       .  A
O785       Cd792   2.222       .  S
O786        C804   1.283       .  A
O786       Cd795   2.118       .  S
O787        C801   1.275       .  A
O787       Cd791   2.069       .  S
O788        C799   1.255       .  A
O788      Cd1159   1.976   1_545  S
Zn789       O800   1.944       .  S
Zn789       O802   2.020       .  S
Zn789      O1162   1.899   1_545  S
O790        C801   1.274       .  A
O790       Cd795   2.043       .  S
Cd791      O1156   2.000       .  S
Cd791       O793   1.986       .  S
Cd791       O794   2.003       .  S
Cd792       O796   2.225       .  S
Cd792       O805   2.178       .  S
Cd792       O794   1.928       .  S
O793        C803   1.251       .  A
O794      Zn1157   1.889       .  S
O794       Cd795   1.948       .  S
Cd795       O797   2.076       .  S
O796        C803   1.294       .  A
O797       C1152   1.275       .  A
C798       O1170   1.273       .  A
C801       C1192   1.446       .  S
O802       C1166   1.281   1_545  A
C803       C1028   1.491       .  S
C804        O805   1.290       .  A
C804        C988   1.514       .  S
O806        C822   1.262       .  A
O806       Zn812   1.972       .  S
C807        O823   1.273       .  A
C807        O820   1.264       .  A
C807        C922   1.434       .  S
O808        C821   1.302       .  A
O808       Cd815   2.220       .  S
O809        C827   1.272       .  A
O809       Cd818   2.016       .  S
O810        C824   1.270       .  A
O810       Cd814   2.059       .  S
O811       C1190   1.277       .  A
O811       Cd814   2.027   1_565  S
Zn812       O823   1.978       .  S
Zn812       O825   2.018       .  S
Zn812      O1185   1.875       .  S
O813        C824   1.269   1_565  A
O813       Cd818   2.013   1_565  S
Cd814       O816   2.073       .  S
Cd814       O817   1.962       .  S
Cd815       O819   2.166       .  S
Cd815       O828   2.226       .  S
Cd815       O817   1.938       .  S
O816        C826   1.277       .  A
O817      Zn1180   1.872   1_545  S
O817       Cd818   1.937       .  S
Cd818      O1188   2.023   1_545  S
O819        C826   1.293       .  A
O820      Cd1186   2.024       .  S
C821       O1193   1.272   1_545  A
C821       C1333   1.500   1_545  S
C822       O1179   1.273       .  A
C822       C1029   1.442       .  S
C824       C1169   1.443   1_545  S
O825       C1189   1.274       .  A
C826       C1010   1.495       .  S
C827        O828   1.303       .  A
C827        C890   1.489       .  S
O829       Zn835   1.989   1_455  S
C830        O846   1.279       .  A
C830        O843   1.257       .  A
C830        C899   1.446       .  S
O831        C844   1.299       .  A
O831       Cd838   2.188       .  S
O832        C850   1.273       .  A
O832       Cd841   2.015       .  S
O834       C1213   1.275       .  A
Zn835       O846   2.052       .  S
Zn835       O848   2.048       .  S
Zn835      O1208   1.908   1_545  S
O836        C847   1.272       .  A
O836       Cd841   2.032   1_455  S
Cd837       O840   1.991   1_455  S
Cd838       O842   2.148       .  S
Cd838       O851   2.220       .  S
Cd838       O840   1.943       .  S
O840      Zn1203   1.872       .  S
O840       Cd841   1.942       .  S
Cd841      O1211   2.026       .  S
O842        C849   1.291       .  A
O843      Cd1209   1.981   1_545  S
C844       O1216   1.274       .  A
C844       C1264   1.496       .  S
C845       O1202   1.272   1_545  A
O848       C1212   1.279   1_545  A
C850        O851   1.297       .  A
C850        C959   1.493       .  S
O852        C868   1.273       .  A
O852       Zn858   2.030       .  S
C853        O869   1.268       .  A
C853       O1234   1.273       .  A
C853        C945   1.443       .  S
O854        C867   1.304       .  A
O854       Cd861   2.220       .  S
O855       Cd864   2.095       .  S
O856        C870   1.268       .  A
O856       Cd860   2.020   1_565  S
O857        C868   1.257       .  A
O857      Cd1228   1.991       .  S
Zn858       O871   2.009       .  S
Zn858      O1231   1.898       .  S
O859       Cd864   2.061       .  S
Cd860      O1225   2.013   1_545  S
Cd860       O862   1.978       .  S
Cd860       O863   1.931       .  S
Cd861       O865   2.229       .  S
Cd861       O874   2.208       .  S
Cd861       O863   1.948       .  S
O862        C872   1.270       .  A
O863      Zn1226   1.905   1_545  S
Cd864       O866   2.046   1_545  S
O865        C872   1.302       .  A
O866       C1221   1.273       .  A
C867       O1239   1.276   1_545  A
C867       C1401   1.499   1_545  S
C868       C1052   1.442       .  S
O871       C1235   1.279       .  A
C873        O874   1.296       .  A
O875        C891   1.277       .  A
O875       Zn881   2.043       .  S
C876        O892   1.276       .  A
C876        O889   1.251       .  A
O877        C890   1.303       .  A
O877       Cd884   2.211       .  S
O878        C896   1.249   1_565  A
O878       Cd887   2.005   1_565  S
O879        C893   1.274       .  A
O879       Cd883   2.027       .  S
O880        C891   1.271       .  A
O880       Cd883   2.050       .  S
Zn881       O892   2.056       .  S
Zn881       O894   2.013       .  S
Zn881       O886   1.908       .  S
O882        C893   1.263       .  A
O882       Cd887   2.005       .  S
Cd883       O885   2.110       .  S
Cd883       O886   1.963       .  S
Cd884       O888   2.146       .  S
Cd884       O897   2.240       .  S
Cd884       O886   1.960       .  S
O885        C895   1.279       .  A
O886       Cd887   2.002       .  S
Cd887       O889   1.932       .  S
O888        C895   1.287       .  A
C890        O894   1.272       .  A
C891        C983   1.456       .  S
C893        C916   1.435       .  S
C896        O897   1.293       .  A
C896       C1212   1.504   1_545  S
O898        C914   1.273       .  A
O898       Zn904   2.003       .  S
C899        O915   1.262       .  A
C899        O912   1.271       .  A
O900        C913   1.305       .  A
O900       Cd907   2.219   1_556  S
O901        C919   1.272       .  A
O901       Cd910   2.051       .  S
O902        C916   1.268       .  A
O902       Cd906   2.006       .  S
O903        C914   1.259       .  A
O903       Cd906   2.004       .  S
Zn904       O915   1.983       .  S
Zn904       O917   2.000   1_554  S
Zn904       O909   1.890       .  S
O905        C916   1.271       .  A
O905       Cd910   2.042       .  S
Cd906       O908   2.004       .  S
Cd906       O909   1.931       .  S
Cd907       O911   2.243       .  S
Cd907       O920   2.180       .  S
Cd907       O909   1.948       .  S
O908        C918   1.271       .  A
O909       Cd910   1.976       .  S
Cd910       O912   2.038       .  S
O911        C918   1.303       .  A
C913        O917   1.276       .  A
C913       C1079   1.497       .  S
C914       C1098   1.440       .  S
C918        C982   1.495       .  S
C919        O920   1.292       .  A
O921        C937   1.275       .  A
O921       Zn927   2.021       .  S
C922        O938   1.265       .  A
C922        O935   1.271       .  A
O923        C936   1.304       .  A
O923       Cd930   2.211       .  S
O924        C942   1.273       .  A
O924       Cd933   2.058       .  S
O925        C939   1.270       .  A
O925       Cd929   2.016       .  S
O926        C937   1.260       .  A
O926       Cd929   2.009       .  S
Zn927       O938   1.948       .  S
Zn927       O940   1.988       .  S
Zn927       O932   1.894       .  S
O928        C939   1.269       .  A
O928       Cd933   2.048       .  S
Cd929       O931   2.018       .  S
Cd929       O932   1.941       .  S
Cd930       O934   2.238       .  S
Cd930       O943   2.161       .  S
Cd930       O932   1.946       .  S
O931        C941   1.272       .  A
O932       Cd933   1.994       .  S
Cd933       O935   2.042       .  S
O934        C941   1.302       .  A
C936        O940   1.272       .  A
C936        C987   1.494       .  S
C937       C1006   1.443       .  S
C939        C962   1.438       .  S
C941       C1074   1.499       .  S
C942        O943   1.292       .  A
O944        C960   1.273       .  A
O944       Zn950   1.996       .  S
C945        O961   1.278       .  A
C945        O958   1.256       .  A
O946        C959   1.304       .  A
O946       Cd953   2.232   1_554  S
O947        C965   1.252       .  A
O947       Cd956   2.004       .  S
O948        C962   1.268       .  A
O948       Cd952   2.014       .  S
O949        C960   1.270       .  A
O949       Cd952   2.046       .  S
Zn950       O961   2.072       .  S
Zn950       O963   1.998   1_556  S
Zn950       O955   1.901       .  S
O951        C962   1.267       .  A
O951       Cd956   2.043       .  S
Cd952       O954   2.086       .  S
Cd952       O955   1.964       .  S
Cd953       O957   2.179       .  S
Cd953       O966   2.221       .  S
Cd953       O955   1.965       .  S
O954        C964   1.275       .  A
O955       Cd956   2.013       .  S
Cd956       O958   1.969       .  S
O957        C964   1.291       .  A
C959        O963   1.268       .  A
C960       C1075   1.439       .  S
C964       C1056   1.503       .  S
C965        O966   1.293       .  A
C965       C1189   1.496       .  S
O967        C983   1.280       .  A
O967       Zn973   2.105       .  S
C968        O984   1.270       .  A
C968        O981   1.273       .  A
O969        C982   1.306       .  A
O969       Cd976   2.240       .  S
O970        C988   1.277       .  A
O970       Cd979   2.091       .  S
O971        C985   1.267       .  A
O971       Cd975   2.045       .  S
O972        C983   1.253       .  A
O972       Cd975   1.963       .  S
Zn973       O984   1.958       .  S
Zn973       O986   2.005       .  S
Zn973       O978   1.902       .  S
O974        C985   1.266       .  A
O974       Cd979   2.006       .  S
Cd975       O977   2.001       .  S
Cd975       O978   2.018       .  S
Cd976       O980   2.227       .  S
Cd976       O989   2.204       .  S
Cd976       O978   1.968       .  S
O977        C987   1.249       .  A
O978       Cd979   1.980       .  S
Cd979       O981   2.074       .  S
O980        C987   1.295       .  A
C982        O986   1.269       .  A
C985       C1008   1.443       .  S
C988        O989   1.294       .  A
O990       C1006   1.267       .  A
O990       Zn996   1.972       .  S
C991       O1007   1.274       .  A
C991       O1004   1.265       .  A
C991       C1014   1.458       .  S
O992       C1005   1.299       .  A
O992       Cd999   2.197       .  S
O993       C1011   1.274       .  A
O993      Cd1002   2.033       .  S
O994       C1008   1.272       .  A
O994       Cd998   2.042       .  S
O995       C1006   1.273       .  A
O995       Cd998   2.048       .  S
Zn996      O1007   2.049       .  S
Zn996      O1009   1.981       .  S
Zn996      O1001   1.864       .  S
O997       C1008   1.273       .  A
O997      Cd1002   2.032       .  S
Cd998      O1000   2.063       .  S
Cd998      O1001   1.971       .  S
Cd999      O1003   2.174       .  S
Cd999      O1012   2.201       .  S
Cd999      O1001   1.942       .  S
O1000      C1010   1.275       .  A
O1001     Cd1002   1.932       .  S
Cd1002     O1004   2.030       .  S
O1003      C1010   1.294       .  A
C1005      O1009   1.262       .  A
C1005      C1057   1.477       .  S
C1011      O1012   1.299       .  A
O1013      C1029   1.281       .  A
O1013     Zn1019   2.058       .  S
C1014      O1030   1.273       .  A
C1014      O1027   1.275       .  A
O1015      C1028   1.297       .  A
O1015     Cd1022   2.161       .  S
O1016      C1034   1.277       .  A
O1016     Cd1025   2.086       .  S
O1017      C1031   1.261       .  A
O1017     Cd1021   2.011       .  S
O1018      C1029   1.257       .  A
O1018     Cd1021   1.974       .  S
Zn1019     O1030   1.998       .  S
Zn1019     O1032   2.036       .  S
Zn1019     O1024   1.903       .  S
O1020      C1031   1.266       .  A
O1020     Cd1025   2.025       .  S
Cd1021     O1023   2.033       .  S
Cd1021     O1024   2.019       .  S
Cd1022     O1026   2.207       .  S
Cd1022     O1035   2.116       .  S
Cd1022     O1024   1.978       .  S
O1023      C1033   1.256       .  A
O1024     Cd1025   1.999       .  S
Cd1025     O1027   2.083       .  S
O1026      C1033   1.290       .  A
C1028      O1032   1.277       .  A
C1031      C1054   1.454       .  S
C1033      C1235   1.499       .  S
C1034      O1035   1.283       .  A
O1036      C1052   1.267       .  A
O1036     Zn1042   1.984       .  S
C1037      O1053   1.276       .  A
C1037      O1050   1.258       .  A
C1037      C1060   1.452       .  S
O1038      C1051   1.300   1_556  A
O1038     Cd1045   2.203       .  S
O1039      C1057   1.266       .  A
O1039     Cd1048   1.977       .  S
O1040      C1054   1.278       .  A
O1040     Cd1044   2.071       .  S
O1041      C1052   1.267       .  A
O1041     Cd1044   2.025       .  S
Zn1042     O1053   2.061       .  S
Zn1042     O1055   1.997   1_556  S
Zn1042     O1047   1.906       .  S
O1043      C1054   1.266       .  A
O1043     Cd1048   2.009       .  S
Cd1044     O1046   2.062       .  S
Cd1044     O1047   1.971       .  S
Cd1045     O1049   2.215       .  S
Cd1045     O1058   2.219       .  S
Cd1045     O1047   1.960       .  S
O1046      C1056   1.276       .  A
O1047     Cd1048   1.937       .  S
Cd1048     O1050   1.993       .  S
O1049      C1056   1.297       .  A
C1051      O1055   1.269       .  A
C1051      C1103   1.484       .  S
C1057      O1058   1.300       .  A
O1059      C1075   1.274       .  A
O1059     Zn1065   2.057       .  S
C1060      O1073   1.271       .  A
O1061      C1074   1.306       .  A
O1061     Cd1068   2.232       .  S
O1063      C1077   1.265       .  A
O1063     Cd1067   2.018       .  S
O1064      C1075   1.254       .  A
O1064     Cd1067   1.959       .  S
Zn1065     O1076   2.040   1_655  S
Zn1065     O1078   2.018       .  S
Zn1065     O1070   1.929       .  S
Cd1067     O1069   2.016       .  S
Cd1067     O1070   2.022       .  S
Cd1068     O1072   2.225       .  S
Cd1068     O1081   2.190       .  S
Cd1068     O1070   1.975       .  S
O1069      C1079   1.250       .  A
O1070     Cd1071   1.977       .  S
O1072      C1079   1.293       .  A
C1074      O1078   1.275       .  A
C1080      O1081   1.293       .  A
O1082      C1098   1.268       .  A
C1083      O1099   1.275       .  A
C1083      O1096   1.260       .  A
O1084      C1097   1.301       .  A
O1084     Cd1091   2.206       .  S
O1085      C1103   1.271       .  A
O1085     Cd1094   2.013       .  S
O1086     Cd1090   2.051       .  S
O1087      C1098   1.269       .  A
O1087     Cd1090   2.029       .  S
Zn1088     O1099   2.048       .  S
Zn1088     O1101   1.987       .  S
Zn1088     O1093   1.877       .  S
O1089      C1100   1.268       .  A
O1089     Cd1094   2.012       .  S
Cd1090     O1092   2.044       .  S
Cd1091     O1095   2.181       .  S
Cd1091     O1104   2.214       .  S
Cd1091     O1093   1.946       .  S
O1093     Cd1094   1.928       .  S
Cd1094     O1096   1.998       .  S
O1095      C1102   1.293       .  A
C1097      O1101   1.267       .  A
C1103      O1104   1.300       .  A
O1105      C1121   1.268       .  A
O1105     Zn1111   1.971       .  S
C1106      O1122   1.273       .  A
C1106      O1119   1.253       .  A
C1106      C1336   1.451       .  S
O1107      C1120   1.305       .  A
O1107     Cd1114   2.220       .  S
O1108      C1126   1.250       .  A
O1108     Cd1117   1.999       .  S
O1109      C1123   1.272       .  A
O1109     Cd1113   2.022       .  S
O1110      C1121   1.273       .  A
O1110     Cd1113   2.059       .  S
Zn1111     O1122   2.069       .  S
Zn1111     O1124   2.006       .  S
Zn1111     O1116   1.892       .  S
O1112      C1123   1.272       .  A
O1112     Cd1117   2.067       .  S
Cd1113     O1115   2.091       .  S
Cd1113     O1116   1.952       .  S
Cd1114     O1118   2.192       .  S
Cd1114     O1127   2.236       .  S
Cd1114     O1116   1.939       .  S
O1115      C1125   1.278       .  A
O1116     Cd1117   2.017       .  S
Cd1117     O1119   1.991       .  S
O1118      C1125   1.291       .  A
C1120      O1124   1.273       .  A
C1120      C1379   1.485       .  S
C1121      C1167   1.444       .  S
C1123      C1146   1.451       .  S
C1126      O1127   1.297       .  A
C1126      C1465   1.495       .  S
O1128      C1144   1.276       .  A
O1128     Zn1134   2.052       .  S
C1129      O1145   1.268       .  A
C1129      O1142   1.274       .  A
C1129      C1451   1.447       .  S
O1130      C1143   1.296   1_554  A
O1130     Cd1137   2.183       .  S
O1131      C1149   1.279       .  A
O1131     Cd1140   2.073       .  S
O1132      C1146   1.272       .  A
O1132     Cd1136   2.027       .  S
O1133      C1144   1.264       .  A
O1133     Cd1136   2.021       .  S
Zn1134     O1145   1.974       .  S
Zn1134     O1147   1.993   1_554  S
Zn1134     O1139   1.862       .  S
O1135      C1146   1.275       .  A
O1135     Cd1140   2.072       .  S
Cd1136     O1138   2.034       .  S
Cd1136     O1139   1.928       .  S
Cd1137     O1141   2.209       .  S
Cd1137     O1150   2.134       .  S
Cd1137     O1139   1.947       .  S
O1139     Cd1140   1.977       .  S
Cd1140     O1142   2.059       .  S
C1143      O1147   1.263       .  A
C1143      C1240   1.472       .  S
C1144      C1213   1.456       .  S
C1148      C1166   1.494   1_545  S
C1149      O1150   1.289       .  A
C1149      C1287   1.482       .  S
O1151      C1167   1.273       .  A
O1151     Zn1157   2.057       .  S
C1152      O1168   1.271       .  A
C1152      C1244   1.451       .  S
O1153      C1166   1.307       .  A
O1153     Cd1160   2.215       .  S
O1154      C1172   1.282       .  A
O1154     Cd1163   2.123       .  S
O1155      C1169   1.267   1_545  A
O1155     Cd1159   2.055   1_545  S
O1156      C1167   1.252       .  A
Zn1157     O1168   1.986       .  S
Zn1157     O1170   1.997       .  S
O1158      C1169   1.270       .  A
O1158     Cd1163   2.022       .  S
Cd1159     O1161   1.997       .  S
Cd1159     O1162   2.026       .  S
Cd1160     O1164   2.238       .  S
Cd1160     O1173   2.181       .  S
Cd1160     O1162   1.943       .  S
O1161      C1171   1.251       .  A
O1162     Cd1163   1.959       .  S
Cd1163     O1165   2.063       .  S
O1164      C1171   1.297       .  A
C1171      C1396   1.499       .  S
C1172      O1173   1.289       .  A
C1172      C1356   1.516       .  S
O1174      C1190   1.263       .  A
O1174     Zn1180   1.983       .  S
C1175      O1191   1.269       .  A
C1175      O1188   1.260       .  A
C1175      C1290   1.433       .  S
O1176      C1189   1.298       .  A
O1176     Cd1183   2.187       .  S
O1177      C1195   1.272       .  A
O1177     Cd1186   2.023       .  S
O1178      C1192   1.271       .  A
O1178     Cd1182   2.069       .  S
O1179     Cd1182   2.042       .  S
Zn1180     O1191   1.987       .  S
Zn1180     O1193   1.997       .  S
O1181      C1192   1.271       .  A
O1181     Cd1186   2.026       .  S
Cd1182     O1184   2.050       .  S
Cd1182     O1185   1.984       .  S
Cd1183     O1187   2.133       .  S
Cd1183     O1196   2.235       .  S
Cd1183     O1185   1.945       .  S
O1184      C1194   1.272       .  A
O1185     Cd1186   1.943       .  S
O1187      C1194   1.291       .  A
C1190      C1397   1.448       .  S
C1194      C1378   1.475       .  S
C1195      O1196   1.301       .  A
C1195      C1258   1.499       .  S
O1197     Zn1203   1.966   1_455  S
C1198      O1214   1.274       .  A
C1198      O1211   1.262       .  A
C1198      C1267   1.442       .  S
O1199      C1212   1.302       .  A
O1199     Cd1206   2.195       .  S
O1200      C1218   1.255       .  A
O1200     Cd1209   2.010       .  S
Zn1203     O1214   1.999       .  S
Zn1203     O1216   2.015       .  S
O1204      C1215   1.260       .  A
O1204     Cd1209   2.020   1_556  S
Cd1205     O1208   1.991       .  S
Cd1206     O1210   2.124       .  S
Cd1206     O1219   2.212       .  S
Cd1206     O1208   1.981       .  S
O1208     Cd1209   2.032       .  S
O1210      C1217   1.283       .  A
C1218      O1219   1.288       .  A
C1218      C1327   1.505       .  S
O1220      C1236   1.273       .  A
O1220     Zn1226   2.025       .  S
C1221      O1237   1.263       .  A
C1221      C1313   1.442       .  S
O1222      C1235   1.306       .  A
O1222     Cd1229   2.225       .  S
O1223     Cd1232   2.091       .  S
O1224      C1238   1.266       .  A
O1224     Cd1228   2.012       .  S
O1225      C1236   1.259       .  A
Zn1226     O1239   2.004       .  S
O1227     Cd1232   2.020       .  S
Cd1228     O1230   1.941       .  S
Cd1228     O1231   1.911       .  S
Cd1229     O1233   2.231       .  S
Cd1229     O1242   2.196       .  S
Cd1229     O1231   1.948       .  S
O1230      C1240   1.263       .  A
Cd1232     O1234   2.072   1_455  S
O1233      C1240   1.302       .  A
C1236      C1420   1.450       .  S
C1241      O1242   1.294       .  A
O1243      C1259   1.272       .  A
O1243     Zn1249   1.996       .  S
C1244      O1260   1.275       .  A
C1244      O1257   1.257       .  A
O1245      C1258   1.307       .  A
O1245     Cd1252   2.242       .  S
O1246      C1264   1.255       .  A
O1246     Cd1255   1.999       .  S
O1247      C1261   1.270       .  A
O1247     Cd1251   2.023       .  S
O1248      C1259   1.275       .  A
O1248     Cd1251   2.068       .  S
Zn1249     O1260   2.062       .  S
Zn1249     O1262   2.011       .  S
Zn1249     O1254   1.903       .  S
O1250      C1261   1.271       .  A
O1250     Cd1255   2.063       .  S
Cd1251     O1253   2.112       .  S
Cd1251     O1254   1.965       .  S
Cd1252     O1256   2.205       .  S
Cd1252     O1265   2.232       .  S
Cd1252     O1254   1.950       .  S
O1253      C1263   1.280       .  A
O1254     Cd1255   2.021       .  S
Cd1255     O1257   2.005       .  S
O1256      C1263   1.293       .  A
C1258      O1262   1.273       .  A
C1259      C1351   1.451       .  S
C1261      C1284   1.445       .  S
C1264      O1265   1.297       .  A
O1266      C1282   1.274       .  A
O1266     Zn1272   2.013       .  S
C1267      O1283   1.264       .  A
C1267      O1280   1.275       .  A
O1268      C1281   1.302       .  A
O1268     Cd1275   2.202   1_556  S
O1269      C1287   1.276       .  A
O1269     Cd1278   2.058       .  S
O1270      C1284   1.270       .  A
O1270     Cd1274   2.023       .  S
O1271      C1282   1.263       .  A
O1271     Cd1274   2.032       .  S
Zn1272     O1283   1.946       .  S
Zn1272     O1285   1.992   1_554  S
Zn1272     O1277   1.875       .  S
O1273      C1284   1.270       .  A
O1273     Cd1278   2.060       .  S
Cd1274     O1276   2.014       .  S
Cd1274     O1277   1.936       .  S
Cd1275     O1279   2.220       .  S
Cd1275     O1288   2.140       .  S
Cd1275     O1277   1.947       .  S
O1276      C1286   1.272       .  A
O1277     Cd1278   1.994       .  S
Cd1278     O1280   2.063       .  S
O1279      C1286   1.298       .  A
C1281      O1285   1.271       .  A
C1281      C1447   1.491       .  S
C1282      C1466   1.450       .  S
C1286      C1350   1.492       .  S
C1287      O1288   1.288       .  A
O1289      C1305   1.276       .  A
O1289     Zn1295   2.053       .  S
C1290      O1306   1.266       .  A
C1290      O1303   1.266       .  A
O1291      C1304   1.302       .  A
O1291     Cd1298   2.194       .  S
O1292      C1310   1.276       .  A
O1292     Cd1301   2.056       .  S
O1293      C1307   1.266       .  A
O1293     Cd1297   2.011       .  S
O1294      C1305   1.260       .  A
O1294     Cd1297   1.989       .  S
Zn1295     O1306   1.970       .  S
Zn1295     O1308   1.997       .  S
Zn1295     O1300   1.900       .  S
O1296      C1307   1.279       .  A
O1296     Cd1301   2.075       .  S
Cd1297     O1299   1.976       .  S
Cd1297     O1300   1.922       .  S
Cd1298     O1302   2.238       .  S
Cd1298     O1311   2.148       .  S
Cd1298     O1300   1.952       .  S
O1299      C1309   1.267       .  A
O1300     Cd1301   1.960       .  S
Cd1301     O1303   2.019       .  S
O1302      C1309   1.301       .  A
C1304      O1308   1.273       .  A
C1304      C1355   1.482       .  S
C1305      C1374   1.447       .  S
C1307      C1330   1.457       .  S
C1309      C1442   1.486       .  S
C1310      O1311   1.289       .  A
O1312      C1328   1.277       .  A
O1312     Zn1318   2.041       .  S
C1313      O1329   1.280       .  A
C1313      O1326   1.259       .  A
O1314      C1327   1.298   1_556  A
O1314     Cd1321   2.176       .  S
O1315      C1333   1.255       .  A
O1315     Cd1324   2.026       .  S
O1316      C1330   1.267       .  A
O1316     Cd1320   2.030       .  S
O1317      C1328   1.272       .  A
O1317     Cd1320   2.026       .  S
Zn1318     O1329   2.048       .  S
Zn1318     O1331   2.076       .  S
Zn1318     O1323   1.898       .  S
O1319      C1330   1.262       .  A
O1319     Cd1324   2.014       .  S
Cd1320     O1322   2.077       .  S
Cd1320     O1323   1.981       .  S
Cd1321     O1325   2.146       .  S
Cd1321     O1334   2.217       .  S
Cd1321     O1323   1.974       .  S
O1322      C1332   1.273       .  A
O1323     Cd1324   2.011       .  S
Cd1324     O1326   1.988       .  S
O1325      C1332   1.288       .  A
C1327      O1331   1.286   1_554  A
C1328      C1443   1.456       .  S
C1332      C1424   1.487       .  S
C1333      O1334   1.293       .  A
O1335      C1351   1.274       .  A
O1335     Zn1341   2.085       .  S
C1336      O1352   1.276       .  A
C1336      O1349   1.272       .  A
O1337      C1350   1.306       .  A
O1337     Cd1344   2.228       .  S
O1338      C1356   1.279       .  A
O1338     Cd1347   2.095       .  S
O1339      C1353   1.276       .  A
O1339     Cd1343   2.062       .  S
O1340      C1351   1.251       .  A
O1340     Cd1343   1.998       .  S
Zn1341     O1352   2.020       .  S
Zn1341     O1354   2.014       .  S
Zn1341     O1346   1.910       .  S
O1342      C1353   1.274       .  A
O1342     Cd1347   2.017       .  S
Cd1343     O1345   1.961       .  S
Cd1343     O1346   1.969       .  S
Cd1344     O1348   2.237       .  S
Cd1344     O1357   2.207       .  S
Cd1344     O1346   1.931       .  S
O1345      C1355   1.254       .  A
O1346     Cd1347   1.936       .  S
Cd1347     O1349   2.043       .  S
O1348      C1355   1.301       .  A
C1350      O1354   1.278       .  A
C1353      C1376   1.449       .  S
C1356      O1357   1.295       .  A
O1358      C1374   1.273       .  A
O1358     Zn1364   2.017       .  S
C1359      O1375   1.274       .  A
C1359      O1372   1.265       .  A
C1359      C1382   1.453       .  S
O1360      C1373   1.301       .  A
O1360     Cd1367   2.209       .  S
O1361      C1379   1.270       .  A
O1361     Cd1370   2.014       .  S
O1362      C1376   1.269       .  A
O1362     Cd1366   2.051       .  S
O1363      C1374   1.268       .  A
O1363     Cd1366   2.021       .  S
Zn1364     O1375   2.038       .  S
Zn1364     O1377   2.012       .  S
Zn1364     O1369   1.874       .  S
O1365      C1376   1.272       .  A
O1365     Cd1370   2.038       .  S
Cd1366     O1368   2.001       .  S
Cd1366     O1369   1.967       .  S
Cd1367     O1371   2.172       .  S
Cd1367     O1380   2.219       .  S
Cd1367     O1369   1.954       .  S
O1368      C1378   1.267       .  A
O1369     Cd1370   1.936       .  S
Cd1370     O1372   2.020       .  S
O1371      C1378   1.293       .  A
C1373      O1377   1.271       .  A
C1373      C1425   1.493       .  S
C1379      O1380   1.300       .  A
O1381      C1397   1.278       .  A
O1381     Zn1387   2.081       .  S
C1382      O1398   1.271       .  A
C1382      O1395   1.274       .  A
O1383      C1396   1.305       .  A
O1383     Cd1390   2.207       .  S
O1384      C1402   1.277       .  A
O1384     Cd1393   2.096       .  S
O1385      C1399   1.262       .  A
O1385     Cd1389   2.008       .  S
O1386      C1397   1.249       .  A
O1386     Cd1389   1.923       .  S
Zn1387     O1398   1.987       .  S
Zn1387     O1400   2.019       .  S
Zn1387     O1392   1.929       .  S
O1388      C1399   1.268       .  A
O1388     Cd1393   2.016       .  S
Cd1389     O1391   2.016   1_565  S
Cd1389     O1392   2.013       .  S
Cd1390     O1394   2.225       .  S
Cd1390     O1403   2.131       .  S
Cd1390     O1392   1.974       .  S
O1391      C1401   1.248   1_545  A
O1392     Cd1393   1.986       .  S
Cd1393     O1395   2.076       .  S
O1394      C1401   1.291       .  A
C1396      O1400   1.277       .  A
C1399      C1422   1.438       .  S
C1402      O1403   1.284       .  A
O1404      C1420   1.269       .  A
O1404     Zn1410   1.999       .  S
C1405      O1421   1.275       .  A
C1405      O1418   1.260       .  A
C1405      C1428   1.447       .  S
O1406      C1419   1.306       .  A
O1406     Cd1413   2.252   1_554  S
O1407      C1425   1.268       .  A
O1407     Cd1416   1.995       .  S
O1408      C1422   1.274       .  A
O1408     Cd1412   2.042       .  S
O1409      C1420   1.268       .  A
O1409     Cd1412   2.033       .  S
Zn1410     O1421   2.050       .  S
Zn1410     O1423   1.986   1_556  S
Zn1410     O1415   1.873       .  S
O1411      C1422   1.266       .  A
O1411     Cd1416   2.001       .  S
Cd1412     O1414   2.022       .  S
Cd1412     O1415   1.963       .  S
Cd1413     O1417   2.195       .  S
Cd1413     O1426   2.248       .  S
Cd1413     O1415   1.954       .  S
O1414      C1424   1.270       .  A
O1415     Cd1416   1.920       .  S
Cd1416     O1418   1.986       .  S
O1417      C1424   1.296       .  A
C1419      O1423   1.265       .  A
C1419      C1471   1.495       .  S
C1425      O1426   1.305       .  A
O1427      C1443   1.274       .  A
O1427     Zn1433   2.092       .  S
C1428      O1441   1.271       .  A
O1429      C1442   1.304       .  A
O1429     Cd1436   2.212       .  S
O1431      C1445   1.271       .  A
O1431     Cd1435   2.053       .  S
O1432      C1443   1.253       .  A
O1432     Cd1435   1.982       .  S
Zn1433     O1444   1.962   1_655  S
Zn1433     O1446   2.013       .  S
Zn1433     O1438   1.888       .  S
Cd1435     O1437   1.991       .  S
Cd1435     O1438   1.990       .  S
Cd1436     O1440   2.226       .  S
Cd1436     O1449   2.163       .  S
Cd1436     O1438   1.919       .  S
O1437      C1447   1.253       .  A
O1438     Cd1439   1.944       .  S
O1440      C1447   1.297       .  A
C1442      O1446   1.274       .  A
C1448      O1449   1.289       .  A
O1450      C1466   1.265       .  A
C1451      O1467   1.274       .  A
C1451      O1464   1.261       .  A
O1452      C1465   1.305       .  A
O1452     Cd1459   2.215       .  S
O1453      C1471   1.269       .  A
O1453     Cd1462   1.991       .  S
O1454     Cd1458   2.054       .  S
O1455      C1466   1.274       .  A
O1455     Cd1458   2.066       .  S
Zn1456     O1467   2.020       .  S
Zn1456     O1469   1.993       .  S
Zn1456     O1461   1.879       .  S
O1457      C1468   1.267       .  A
O1457     Cd1462   2.000       .  S
Cd1458     O1460   2.058       .  S
Cd1459     O1463   2.183       .  S
Cd1459     O1472   2.239       .  S
Cd1459     O1461   1.944       .  S
O1461     Cd1462   1.925       .  S
Cd1462     O1464   2.018       .  S
O1463      C1470   1.293       .  A
C1465      O1469   1.273       .  A
C1471      O1472   1.300       .  A
