geometry optimzed in LAMMPS
_audit_creation_date              2020-12-01 
_audit_creation_method            'lammps2cif' 
_symmetry_space_group_name_H-M    'P1' 
_symmetry_Int_Tables_number       1 
_symmetry_cell_setting            triclinic 
loop_ 
_symmetry_equiv_pos_as_xyz 
  x,y,z 
_cell_length_a                    56.87800318 
_cell_length_b                    56.874193889697466 
_cell_length_c                    37.09884276064209 
_cell_angle_alpha                 89.92091854171723 
_cell_angle_beta                  89.9352449326412 
_cell_angle_gamma                 89.87055414065155 
loop_ 
_atom_site_label 
_atom_site_type_symbol 
_atom_site_fract_x 
_atom_site_fract_y 
_atom_site_fract_z 
_atom_site_charge 
Zr1        Zr  0.59214291  0.05265350  0.66015924     2.17500
O2          O  0.61725738  0.02595748  0.62584345    -0.51700
O3          O  0.56575517  0.03868473  0.61141018    -0.74900
O4          O  0.59788089  0.01401553  0.69041975    -0.81700
O5          O  0.61679487  0.10834221  0.61302115    -0.83400
O6          O  0.57900242  0.01361968  0.74458076    -0.79100
O7          O  0.62347397  0.06918199  0.62109035    -0.90700
O8          O  0.52973188  0.05507170  0.61890576    -0.76700
O9          O  0.55512065  0.04876877  0.69013038    -0.86200
O10         O  0.56831105  0.08457531  0.63928303    -0.85900
O11         O  0.60023329  0.05594244  0.72421299    -0.72600
O12         O  0.61176995  0.08829196  0.67770672    -0.84700
Zr13       Zr  0.55922151  0.11935986  0.75030410     2.26400
Zr14       Zr  0.56264295  0.05252196  0.75363167     2.06300
Zr15       Zr  0.58764703  0.12007792  0.65711937     2.10000
Zr16       Zr  0.53165277  0.08093869  0.66996642     1.78800
O17         O  0.61842787  0.14981276  0.65907285    -0.93500
O18         O  0.50074372  0.05295820  0.68493579    -0.41400
O19         O  0.55076138  0.11639973  0.68720460    -0.78000
O20         O  0.53833460  0.08427823  0.73329548    -0.96700
O21         O  0.58275251  0.08767926  0.77158178    -0.90000
O22         O  0.59592387  0.12371638  0.72012717    -0.92800
C23         C  0.54412433  0.04181492  0.60191000     1.00900
C24         C  0.62818257  0.08932393  0.60658009     1.13900
C25         C  0.59185182  0.00393715  0.72031016     1.04600
O26         O  0.52916889  0.02592560  0.75271304    -0.95000
O27         O  0.53696942  0.06469201  0.80321098    -0.90700
O28         O  0.53578753  0.10461857  0.80059729    -0.83900
C29         C  0.52979785  0.08484022  0.81445176     1.11300
O30         O  0.65425715  0.06723850  0.73350404    -0.96900
Zr31       Zr  0.61934812  0.09173784  0.74101490     1.88900
O32         O  0.58683149  0.13935167  0.79030115    -0.73600
O33         O  0.57885381  0.03726099  0.80977063    -0.52900
O34         O  0.63103126  0.07408896  0.79820795    -0.97500
O35         O  0.65294411  0.11364633  0.71819696    -0.54800
O36         O  0.62327885  0.12364503  0.78395709    -0.74100
C37         C  0.60888147  0.13851790  0.79770398     0.98200
O38         O  0.53267495  0.14818813  0.77746780    -0.62900
O39         O  0.57584620  0.13247917  0.59691171    -0.57700
O40         O  0.54849322  0.15541408  0.71905881    -0.94400
O41         O  0.56433304  0.15595830  0.66291553    -0.92800
O42         O  0.51754353  0.10713680  0.62268054    -0.93200
O43         O  0.49350802  0.09861632  0.68266075    -0.92000
C44         C  0.55167282  0.16499331  0.68806294     1.17100
H45         H  0.56647142  0.08446713  0.61339575     0.33000
H46         H  0.52297482  0.08365781  0.74433217     0.43900
H47         H  0.60298846  0.13878864  0.72495720     0.37400
H48         H  0.61093744  0.04393398  0.73243200     0.33900
H49         H  0.49079157  0.05216037  0.66308554     0.25700
H50         H  0.58058641  0.05118503  0.82553121     0.31600
H51         H  0.61965818  0.08017770  0.81615676     0.37500
H52         H  0.51936060  0.12319460  0.63257060     0.32000
H53         H  0.55847589  0.13342485  0.59784622     0.30800
H54         H  0.61183991  0.16289236  0.67348735     0.32500
H55         H  0.66241888  0.11746008  0.73976794     0.31500
H56         H  0.49663963  0.10987991  0.70237835     0.35500
H57         H  0.53730707  0.14939801  0.80312743     0.28200
H58         H  0.60796730  0.01142444  0.62247089     0.32500
H59         H  0.66587332  0.07317773  0.75112302     0.35300
H60         H  0.58110263  0.14901824  0.59496286     0.27900
H61         H  0.51684550  0.14096949  0.77770199     0.40800
H62         H  0.53200012  0.01495481  0.77300102     0.30800
H63         H  0.50872381  0.03748515  0.68584819     0.38500
H64         H  0.64639053  0.12888367  0.71010893     0.30300
H65         H  0.56591117  0.02810054  0.82077904     0.30400
H66         H  0.63019975  0.02144751  0.64229440     0.30600
Zr67       Zr  0.40829090  0.92017864  0.37213937     2.17500
O68         O  0.37977930  0.94817379  0.39628588    -0.51700
O69         O  0.43399297  0.94375774  0.41212656    -0.74900
O70         O  0.38298475  0.90417009  0.42153060    -0.81700
O71         O  0.41584628  0.95421141  0.28167022    -0.83400
O72         O  0.39159076  0.86556565  0.43147784    -0.79100
O73         O  0.39801787  0.95556166  0.33645006    -0.90700
O74         O  0.47187941  0.93259530  0.40332186    -0.76700
O75         O  0.43571440  0.89294566  0.39732943    -0.86200
O76         O  0.44409858  0.92592339  0.33943326    -0.85900
O77         O  0.39223301  0.88153026  0.36014195    -0.72600
O78         O  0.40030156  0.91196397  0.30931520    -0.84700
Zr79       Zr  0.44794930  0.85185255  0.29287398     2.26400
Zr80       Zr  0.42007513  0.85429076  0.38577138     2.06300
Zr81       Zr  0.43668261  0.91694726  0.27719116     2.10000
Zr82       Zr  0.47137205  0.89877950  0.36454028     1.78800
O83         O  0.41661945  0.92536933  0.22067214    -0.93500
O84         O  0.48587982  0.88397392  0.42208929    -0.41400
O85         O  0.46462075  0.89010588  0.30222972    -0.78000
O86         O  0.45635444  0.86039762  0.35475959    -0.96700
O87         O  0.41191284  0.84562965  0.32382201    -0.90000
O88         O  0.42100448  0.87865681  0.26626178    -0.92800
C89         C  0.45629201  0.94581651  0.41771644     1.00900
C90         C  0.40280282  0.96446810  0.30521429     1.13900
C91         C  0.37977924  0.88434177  0.43808004     1.04600
O92         O  0.43905389  0.84752905  0.44368557    -0.95000
O93         O  0.44226604  0.81724332  0.38091834    -0.90700
O94         O  0.45649297  0.81530587  0.32355881    -0.83900
C95         C  0.45395754  0.80711877  0.35549960     1.11300
O96         O  0.34617272  0.88994863  0.30790148    -0.96900
Zr97       Zr  0.38518568  0.87322376  0.29805471     1.88900
O98         O  0.42453246  0.82931116  0.25027310    -0.73600
O99         O  0.39155243  0.82273963  0.39322253    -0.52900
O100        O  0.35538891  0.84574395  0.31928363    -0.97500
O101        O  0.36984656  0.89100717  0.24294471    -0.54800
O102        O  0.38642478  0.83941472  0.25801555    -0.74100
C103        C  0.40258673  0.82691115  0.24329191     0.98200
O104        O  0.48188719  0.82692491  0.27952818    -0.62900
O105        O  0.46797676  0.94535587  0.26719853    -0.57700
O106        O  0.47010381  0.86425734  0.24078234    -0.94400
O107        O  0.46289787  0.90282199  0.22914055    -0.92800
O108        O  0.50241503  0.92408125  0.34149256    -0.93200
O109        O  0.50908171  0.87909209  0.35653112    -0.92000
C110        C  0.47287814  0.88297539  0.22215380     1.17100
H111        H  0.44949809  0.94193207  0.34176353     0.33000
H112        H  0.46839418  0.85012454  0.36368693     0.43900
H113        H  0.41942403  0.87578406  0.24073529     0.37400
H114        H  0.37684388  0.87944885  0.37049101     0.33900
H115        H  0.50098500  0.89222652  0.42589956     0.25700
H116        H  0.39270378  0.81337119  0.37081315     0.31600
H117        H  0.36365662  0.83047748  0.32152665     0.37500
H118        H  0.49409997  0.93665615  0.32815509     0.32000
H119        H  0.46378588  0.95328492  0.24431681     0.30800
H120        H  0.42551597  0.93858751  0.20993532     0.32500
H121        H  0.38194381  0.88832416  0.22422286     0.31500
H122        H  0.50780473  0.87117541  0.33285745     0.35500
H123        H  0.47997465  0.82165528  0.25426155     0.28200
H124        H  0.38330309  0.94949416  0.42233806     0.32500
H125        H  0.33598902  0.88312375  0.28899076     0.35300
H126        H  0.46579663  0.95748279  0.28599800     0.27900
H127        H  0.49572020  0.83746951  0.27933059     0.40800
H128        H  0.43812824  0.86282162  0.45633418     0.30800
H129        H  0.47520330  0.89077552  0.44043373     0.38500
H130        H  0.37033528  0.90816015  0.24742454     0.30300
H131        H  0.39832930  0.81244732  0.41210728     0.30400
H132        H  0.36426358  0.94036437  0.39499982     0.30600
Zr133      Zr  0.68484841  0.82416269  0.90434825     2.17500
O134        O  0.71226941  0.84888419  0.87086498    -0.51700
O135        O  0.70274377  0.79562132  0.86213733    -0.74900
O136        O  0.72210149  0.83118268  0.93751202    -0.81700
O137        O  0.63088997  0.84707371  0.84998686    -0.83400
O138        O  0.72005595  0.81358637  0.99253567    -0.79100
O139        O  0.66976181  0.85355907  0.86054039    -0.90700
O140        O  0.68625989  0.75966267  0.86998865    -0.76700
O141        O  0.68719915  0.78812988  0.93727070    -0.86200
O142        O  0.65422996  0.79947165  0.88179010    -0.85900
O143        O  0.67851153  0.83461844  0.96688967    -0.72600
O144        O  0.64840103  0.84416664  0.91639441    -0.84700
Zr145      Zr  0.61460530  0.79345624  0.98899914     2.26400
Zr146      Zr  0.68076209  0.79803162  0.99940292     2.06300
Zr147      Zr  0.61785505  0.81917867  0.89451933     2.10000
Zr148      Zr  0.65631612  0.76375180  0.91523553     1.78800
O149        O  0.58824379  0.84999646  0.88905638    -0.93500
O150        O  0.68193163  0.73186742  0.93506496    -0.41400
O151        O  0.61975170  0.78292100  0.92692342    -0.78000
O152        O  0.65066178  0.77254816  0.97742672    -0.96700
O153        O  0.64465500  0.81824279  0.01191773    -0.90000
O154        O  0.61117457  0.82920364  0.95630244    -0.92800
C155        C  0.70075983  0.77357037  0.85459536     1.00900
C156        C  0.65011062  0.85814379  0.84442627     1.13900
C157        C  0.73090432  0.82562641  0.96849386     1.04600
O158        O  0.70744485  0.76473933  0.00541343    -0.95000
O159        O  0.66572574  0.77497353  0.05015419    -0.90700
O160        O  0.62660261  0.77044231  0.04050913    -0.83900
C161        C  0.64544656  0.76654092  0.05840204     1.11300
O162        O  0.66293760  0.89049718  0.96957581    -0.96900
Zr163      Zr  0.64166654  0.85379510  0.97831678     1.88900
O164        O  0.59385094  0.82148835  0.02751085    -0.73600
O165        O  0.69400120  0.81669902  0.05481022    -0.52900
O166        O  0.65945272  0.86857359  0.03350323    -0.97500
O167        O  0.61698572  0.88423555  0.95145257    -0.54800
O168        O  0.60981352  0.85785772  0.02134277    -0.74100
C169        C  0.59493884  0.84350345  0.03499767     0.98200
O170        O  0.58924485  0.76516773  0.01972171    -0.62900
O171        O  0.60810680  0.80147975  0.83662743    -0.57700
O172        O  0.57903656  0.78408390  0.95611667    -0.94400
O173        O  0.57952752  0.80140336  0.90090961    -0.92800
O174        O  0.63447800  0.74910201  0.86354496    -0.93200
O175        O  0.63536490  0.72762174  0.92977862    -0.92000
C176        C  0.56983175  0.78887315  0.92546989     1.17100
H177        H  0.65593298  0.79676578  0.85618971     0.33000
H178        H  0.65111366  0.75755068  0.98959488     0.43900
H179        H  0.59575557  0.83619213  0.95923560     0.37400
H180        H  0.69015206  0.84562001  0.97529049     0.33900
H181        H  0.68246032  0.72080113  0.91448985     0.25700
H182        H  0.67971801  0.81819521  0.06992782     0.31600
H183        H  0.67503913  0.86084212  0.03471779     0.37500
H184        H  0.64119403  0.73334052  0.85871305     0.32000
H185        H  0.59480379  0.81099051  0.82740691     0.30800
H186        H  0.58398087  0.85024343  0.86319071     0.32500
H187        H  0.60065845  0.87981334  0.95765979     0.31500
H188        H  0.62113833  0.73291545  0.94289852     0.35500
H189        H  0.57372425  0.77290968  0.02234560     0.28200
H190        H  0.72716348  0.83986879  0.86958927     0.32500
H191        H  0.65429404  0.90238214  0.98392553     0.35300
H192        H  0.62135676  0.80533690  0.82036682     0.27900
H193        H  0.58671662  0.75212265  0.00250473     0.40800
H194        H  0.71663644  0.76453907  0.98275013     0.30800
H195        H  0.69785669  0.73883381  0.93574012     0.38500
H196        H  0.61809580  0.88153416  0.92515575     0.30300
H197        H  0.70363782  0.80456305  0.06703829     0.30400
H198        H  0.71568892  0.86238368  0.88683054     0.30600
Zr199      Zr  0.81906751  0.64226002  0.61628358     2.17500
O200        O  0.78769003  0.61786214  0.64122804    -0.51700
O201        O  0.79923002  0.67014569  0.65770400    -0.74900
O202        O  0.83223348  0.61481542  0.66355881    -0.81700
O203        O  0.78599687  0.65028348  0.52651331    -0.83400
O204        O  0.87151700  0.61954018  0.67268791    -0.79100
O205        O  0.78395833  0.63225758  0.58113272    -0.90700
O206        O  0.81578287  0.70616747  0.65252836    -0.76700
O207        O  0.84958389  0.66644276  0.64013072    -0.86200
O208        O  0.81563247  0.67894806  0.58564514    -0.85900
O209        O  0.85550294  0.62227115  0.60184811    -0.72600
O210        O  0.82508987  0.63419147  0.55309466    -0.84700
Zr211      Zr  0.88897146  0.67572468  0.53466736     2.26400
Zr212      Zr  0.88603237  0.64659489  0.62651502     2.06300
Zr213      Zr  0.82263885  0.67126815  0.52296707     2.10000
Zr214      Zr  0.84624633  0.70298769  0.60846342     1.78800
O215        O  0.81033358  0.65723416  0.46393872    -0.93500
O216        O  0.86306999  0.72082339  0.66224651    -0.41400
O217        O  0.85289706  0.69617154  0.54590604    -0.78000
O218        O  0.88255306  0.68402361  0.59742828    -0.96700
O219        O  0.89244215  0.63857881  0.56385550    -0.90000
O220        O  0.85899405  0.65205851  0.50889127    -0.92800
C221        C  0.80078978  0.69210025  0.66616757     1.00900
C222        C  0.77560195  0.63732865  0.54982824     1.13900
C223        C  0.85171177  0.60952407  0.67930465     1.04600
O224        O  0.89911527  0.65813469  0.68637813    -0.95000
O225        O  0.92421061  0.66713792  0.62218015    -0.90700
O226        O  0.92496831  0.68432275  0.56675114    -0.83900
C227        C  0.93395919  0.68011169  0.59777216     1.11300
O228        O  0.83698900  0.58033295  0.54002937    -0.96900
Zr229      Zr  0.86162875  0.61530510  0.53897978     1.88900
O230        O  0.90934854  0.64951965  0.49339605    -0.73600
O231        O  0.91358913  0.61384099  0.62262925    -0.52900
O232        O  0.87997555  0.57966351  0.56243662    -0.97500
O233        O  0.84762388  0.60645411  0.47837035    -0.54800
O234        O  0.89702203  0.61208092  0.50286698    -0.74100
C235        C  0.91069409  0.62726896  0.48838095     0.98200
O236        O  0.91941714  0.70245104  0.51298648    -0.62900
O237        O  0.79515040  0.70418759  0.52097917    -0.57700
O238        O  0.87549775  0.70206193  0.48727190    -0.94400
O239        O  0.83669744  0.69689533  0.47563235    -0.92800
O240        O  0.82153413  0.73241298  0.57937983    -0.93200
O241        O  0.86915522  0.73880590  0.60082795    -0.92000
C242        C  0.85667514  0.70644049  0.46944363     1.17100
H243        H  0.80034673  0.68583019  0.58966301     0.33000
H244        H  0.89343002  0.69536629  0.60694690     0.43900
H245        H  0.86109633  0.65055097  0.48315363     0.37400
H246        H  0.85616685  0.60663177  0.61174056     0.33900
H247        H  0.85150535  0.73282016  0.67007955     0.25700
H248        H  0.92345089  0.61521511  0.64449697     0.31600
H249        H  0.89094003  0.57438620  0.54333820     0.37500
H250        H  0.82289295  0.74659404  0.59467072     0.32000
H251        H  0.78666549  0.70229084  0.49788601     0.30800
H252        H  0.79663899  0.66715615  0.45748131     0.32500
H253        H  0.83025292  0.60675274  0.48017461     0.31500
H254        H  0.88060832  0.73503210  0.58155096     0.35500
H255        H  0.92095363  0.69947009  0.48681190     0.28200
H256        H  0.78768712  0.62074499  0.66754921     0.32500
H257        H  0.82374703  0.58461886  0.55605695     0.35300
H258        H  0.78317572  0.70106761  0.53968277     0.27900
H259        H  0.91275807  0.71850688  0.51495598     0.40800
H260        H  0.91274079  0.64779462  0.69150078     0.30800
H261        H  0.86222221  0.70839038  0.68091295     0.38500
H262        H  0.85170391  0.58974184  0.47421342     0.30300
H263        H  0.90391706  0.59965077  0.62687210     0.30400
H264        H  0.79292991  0.60134978  0.63838321     0.30600
Zr265      Zr  0.09507302  0.05230462  0.87528195     2.17500
O266        O  0.12247416  0.02346843  0.90038978    -0.51700
O267        O  0.06679994  0.03117612  0.91399046    -0.74900
O268        O  0.11926229  0.06650161  0.92588351    -0.81700
O269        O  0.08860688  0.01676338  0.78809713    -0.83400
O270        O  0.11299638  0.10571719  0.93390883    -0.79100
O271        O  0.10451145  0.01568116  0.84433296    -0.90700
O272        O  0.03009331  0.04432968  0.90115940    -0.76700
O273        O  0.06764080  0.08083172  0.89664811    -0.86200
O274        O  0.06093008  0.04768164  0.83860300    -0.85900
O275        O  0.11352891  0.08980397  0.86408654    -0.72600
O276        O  0.10700565  0.05894457  0.81349943    -0.84700
Zr277      Zr  0.06362482  0.12182761  0.79059366     2.26400
Zr278      Zr  0.08597390  0.11836902  0.88647628     2.06300
Zr279      Zr  0.07223674  0.05566651  0.77749737     2.10000
Zr280      Zr  0.03376551  0.07633277  0.85930538     1.78800
O281        O  0.09587362  0.04752785  0.72418286    -0.93500
O282        O  0.01399892  0.09256870  0.91201505    -0.41400
O283        O  0.04487031  0.08438491  0.79848706    -0.78000
O284        O  0.05084442  0.11404161  0.85145157    -0.96700
O285        O  0.09830946  0.12591101  0.82554933    -0.90000
O286        O  0.09030739  0.09317410  0.76744350    -0.92800
C287        C  0.04427964  0.03069621  0.91782310     1.00900
C288        C  0.09990333  0.00642723  0.81357880     1.13900
C289        C  0.12347562  0.08626115  0.94149785     1.04600
O290        O  0.06639889  0.12431277  0.94412918    -0.95000
O291        O  0.06497135  0.15588574  0.88009382    -0.90700
O292        O  0.05019247  0.15655678  0.82317177    -0.83900
C293        C  0.05265483  0.16536618  0.85478843     1.11300
O294        O  0.16089411  0.07469290  0.81465239    -0.96900
Zr295      Zr  0.12475533  0.09663655  0.80323238     1.88900
O296        O  0.09253055  0.14582789  0.75867996    -0.73600
O297        O  0.11351578  0.15060293  0.89508689    -0.52900
O298        O  0.15468917  0.12086357  0.83190622    -0.97500
O299        O  0.14268258  0.08021505  0.74902074    -0.54800
O300        O  0.12922750  0.13051987  0.76438200    -0.74100
C301        C  0.11474105  0.14593869  0.75255800     0.98200
O302        O  0.03851728  0.14720066  0.75392602    -0.62900
O303        O  0.04211804  0.02751048  0.76013075    -0.57700
O304        O  0.04056220  0.10859968  0.73943627    -0.94400
O305        O  0.04605475  0.06948350  0.72983023    -0.92800
O306        O  0.00550398  0.05015665  0.83095272    -0.93200
O307        O  0.99721758  0.09643604  0.84419652    -0.92000
C308        C  0.03668231  0.08946758  0.72217157     1.17100
H309        H  0.05459694  0.03199743  0.84078012     0.33000
H310        H  0.03830518  0.12418119  0.85953844     0.43900
H311        H  0.09337330  0.09585619  0.74215270     0.37400
H312        H  0.12847383  0.09138700  0.87579895     0.33900
H313        H  0.00137723  0.08118786  0.91772660     0.25700
H314        H  0.11260833  0.15430870  0.92111959     0.31600
H315        H  0.14868372  0.13717291  0.83008356     0.37500
H316        H  0.99270744  0.04847149  0.84888360     0.32000
H317        H  0.05047637  0.01534662  0.74596135     0.30800
H318        H  0.08473848  0.04041335  0.70686940     0.32500
H319        H  0.13332774  0.08636918  0.72859369     0.31500
H320        H  0.00158447  0.10754709  0.82474729     0.35500
H321        H  0.02411301  0.15003104  0.76832772     0.28200
H322        H  0.11878369  0.02225882  0.92642453     0.32500
H323        H  0.17356465  0.08351596  0.80231575     0.35300
H324        H  0.03747106  0.01955285  0.78276909     0.27900
H325        H  0.04657545  0.16259857  0.75288191     0.40800
H326        H  0.07378922  0.13860003  0.95423504     0.30800
H327        H  0.02544589  0.09075328  0.93191889     0.38500
H328        H  0.13893410  0.06323501  0.74993945     0.30300
H329        H  0.12923871  0.14340141  0.89187947     0.30400
H330        H  0.13829856  0.03064907  0.89909487     0.30600
Zr331      Zr  0.90589739  0.92131559  0.15815559     2.17500
O332        O  0.88015526  0.94576262  0.12105164    -0.51700
O333        O  0.93221476  0.93752490  0.11091415    -0.74900
O334        O  0.89631599  0.95937322  0.18631786    -0.81700
O335        O  0.88520348  0.86345253  0.11330923    -0.83400
O336        O  0.91420231  0.96180543  0.24109786    -0.79100
O337        O  0.87611090  0.90227819  0.11932952    -0.90700
O338        O  0.96925720  0.92426759  0.12076697    -0.76700
O339        O  0.94124716  0.92847044  0.19121331    -0.86200
O340        O  0.93295035  0.89159754  0.13932080    -0.85900
O341        O  0.89617682  0.91804950  0.22170640    -0.72600
O342        O  0.88887282  0.88426431  0.17483087    -0.84700
Zr343      Zr  0.94165253  0.85828905  0.25135394     2.26400
Zr344      Zr  0.93220745  0.92421443  0.25433440     2.06300
Zr345      Zr  0.91618719  0.85460059  0.15643787     2.10000
Zr346      Zr  0.96806917  0.89877965  0.17247120     1.78800
O347        O  0.89001619  0.82078650  0.15421232    -0.93500
O348        O  0.99487909  0.93087135  0.18645998    -0.41400
O349        O  0.95183570  0.86150661  0.18874515    -0.78000
O350        O  0.95996875  0.89512836  0.23540786    -0.96700
O351        O  0.91454990  0.88759044  0.27074435    -0.90000
O352        O  0.90627841  0.85091245  0.21893086    -0.92800
C353        C  0.95426543  0.93625810  0.10281485     1.00900
C354        C  0.87263923  0.88162453  0.10588485     1.13900
C355        C  0.90133570  0.97022141  0.21578459     1.04600
O356        O  0.96121149  0.95511339  0.26264747    -0.95000
O357        O  0.95776051  0.91399112  0.30558435    -0.90700
O358        O  0.96519290  0.87493667  0.29985666    -0.83900
C359        C  0.96795392  0.89481576  0.31570342     1.11300
O360        O  0.84370649  0.90377346  0.22670086    -0.96900
Zr361      Zr  0.87941626  0.88095255  0.23731274     1.88900
O362        O  0.91374077  0.83730464  0.29019378    -0.73600
O363        O  0.90999731  0.93493913  0.30805629    -0.52900
O364        O  0.86380558  0.89793581  0.29272057    -0.97500
O365        O  0.84861918  0.85600198  0.21261768    -0.54800
O366        O  0.87625903  0.84967124  0.28075606    -0.74100
C367        C  0.89147223  0.83648629  0.29606584     0.98200
O368        O  0.96493709  0.83227225  0.28981954    -0.62900
O369        O  0.93317747  0.84617038  0.09754439    -0.57700
O370        O  0.95828241  0.82441263  0.21977753    -0.94400
O371        O  0.94023246  0.81944080  0.16566036    -0.92800
O372        O  0.98625494  0.87513741  0.12550076    -0.93200
O373        O  0.00687892  0.88470721  0.19013575    -0.92000
C374        C  0.95477418  0.81309469  0.19035006     1.17100
H375        H  0.93554994  0.89190933  0.11357721     0.33000
H376        H  0.97499369  0.89733784  0.24691513     0.43900
H377        H  0.90030032  0.83530087  0.22342573     0.37400
H378        H  0.88433570  0.92925455  0.22888596     0.33900
H379        H  0.99598945  0.93094151  0.21309582     0.25700
H380        H  0.91725944  0.94978160  0.31635844     0.31600
H381        H  0.85064798  0.88753861  0.29984535     0.37500
H382        H  0.00105829  0.88340217  0.11950626     0.32000
H383        H  0.94972062  0.84182228  0.10254761     0.30800
H384        H  0.89041823  0.81557725  0.12876550     0.32500
H385        H  0.83985732  0.85008276  0.23383036     0.31500
H386        H  0.00381111  0.87288138  0.20917032     0.35500
H387        H  0.95783471  0.81645984  0.28760003     0.28200
H388        H  0.88833394  0.96100251  0.11819594     0.32500
H389        H  0.83094861  0.89534805  0.23945550     0.35300
H390        H  0.92566577  0.83130439  0.08991055     0.27900
H391        H  0.98060474  0.83093834  0.27829853     0.40800
H392        H  0.96474977  0.96078108  0.23800142     0.30800
H393        H  0.98608005  0.94540860  0.18054266     0.38500
H394        H  0.85697396  0.84205844  0.20305254     0.30300
H395        H  0.89430431  0.93967167  0.29903719     0.30400
H396        H  0.86624407  0.94926827  0.13622073     0.30600
Zr397      Zr  0.18322980  0.83233636  0.62056327     2.17500
O398        O  0.21320980  0.85889240  0.64395217    -0.51700
O399        O  0.19888434  0.80604728  0.66782827    -0.74900
O400        O  0.16905832  0.85918224  0.66779234    -0.81700
O401        O  0.21976005  0.82271752  0.53391479    -0.83400
O402        O  0.13016970  0.85197103  0.67752285    -0.79100
O403        O  0.22122732  0.83838700  0.59029368    -0.90700
O404        O  0.18259128  0.77002922  0.66111091    -0.76700
O405        O  0.15363576  0.80643541  0.64273799    -0.86200
O406        O  0.18776264  0.79679910  0.58706925    -0.85900
O407        O  0.14632966  0.85151834  0.60708058    -0.72600
O408        O  0.17762370  0.84212511  0.55766456    -0.84700
Zr409      Zr  0.11355223  0.80020782  0.53638695     2.26400
Zr410      Zr  0.11668685  0.82549458  0.63025191     2.06300
Zr411      Zr  0.18066081  0.80597191  0.52478005     2.10000
Zr412      Zr  0.15801994  0.77122542  0.60850591     1.78800
O413        O  0.19285700  0.82461286  0.46865748    -0.93500
O414        O  0.13486683  0.74990225  0.65292331    -0.41400
O415        O  0.15049947  0.78053623  0.54682864    -0.78000
O416        O  0.12071786  0.78913301  0.59795733    -0.96700
O417        O  0.10992588  0.83607913  0.56850320    -0.90000
O418        O  0.14367472  0.82487590  0.51233251    -0.92800
C419        C  0.19598910  0.78447425  0.67750910     1.00900
C420        C  0.23051647  0.83360939  0.55944100     1.13900
C421        C  0.14942945  0.86292795  0.68412694     1.04600
O422        O  0.10554771  0.81003554  0.68906341    -0.95000
O423        O  0.07891486  0.80492357  0.62614404    -0.90700
O424        O  0.07693648  0.79136941  0.56858202    -0.83900
C425        C  0.06859901  0.79362668  0.60061528     1.11300
O426        O  0.16308367  0.89641001  0.55354779    -0.96900
Zr427      Zr  0.14050597  0.86051313  0.54516194     1.88900
O428        O  0.09154792  0.82802933  0.49859190    -0.73600
O429        O  0.08746384  0.85683586  0.63132499    -0.52900
O430        O  0.11805207  0.89373833  0.56842826    -0.97500
O431        O  0.15705724  0.87481487  0.48862241    -0.54800
O432        O  0.10634641  0.86460536  0.50724109    -0.74100
C433        C  0.09161299  0.85038394  0.49319483     0.98200
O434        O  0.08949852  0.76993018  0.50795970    -0.62900
O435        O  0.20831477  0.77352727  0.51779675    -0.57700
O436        O  0.12608902  0.77662540  0.48570811    -0.94400
O437        O  0.16564472  0.77988394  0.47751561    -0.92800
O438        O  0.19018126  0.74583983  0.58902878    -0.93200
O439        O  0.14551755  0.73198626  0.59095848    -0.92000
C440        C  0.14532369  0.77143584  0.46952286     1.17100
H441        H  0.20328679  0.79024038  0.59056193     0.33000
H442        H  0.10981885  0.77733130  0.60591649     0.43900
H443        H  0.14141616  0.82725172  0.48679116     0.37400
H444        H  0.14489484  0.86685387  0.61755135     0.33900
H445        H  0.14606612  0.73900550  0.66474095     0.25700
H446        H  0.08111609  0.85656209  0.65618622     0.31600
H447        H  0.11517000  0.90395103  0.54723864     0.37500
H448        H  0.19793537  0.74054363  0.61150229     0.32000
H449        H  0.19847700  0.75920400  0.51687650     0.30800
H450        H  0.17878683  0.82427339  0.45299591     0.32500
H451        H  0.14734451  0.86776017  0.46935113     0.31500
H452        H  0.12902824  0.73404911  0.58299882     0.35500
H453        H  0.07389475  0.77717124  0.50366261     0.28200
H454        H  0.21405673  0.85580670  0.67019926     0.32500
H455        H  0.17527954  0.89214351  0.57144170     0.35300
H456        H  0.21454968  0.77529443  0.49300925     0.27900
H457        H  0.08683182  0.75774445  0.52661385     0.40800
H458        H  0.11997164  0.80239098  0.69838022     0.30800
H459        H  0.13107869  0.76177588  0.67152261     0.38500
H460        H  0.17247749  0.86682496  0.48660863     0.30300
H461        H  0.09673135  0.87152921  0.63004980     0.30400
H462        H  0.20663856  0.87496991  0.64170849     0.30600
Zr463      Zr  0.31591416  0.64665632  0.90566263     2.17500
O464        O  0.29050077  0.61808119  0.87602377    -0.51700
O465        O  0.29285722  0.67397938  0.86766849    -0.74900
O466        O  0.28063851  0.63724703  0.94105348    -0.81700
O467        O  0.36752970  0.62998919  0.84202771    -0.83400
O468        O  0.28399932  0.65349854  0.99682981    -0.79100
O469        O  0.32974975  0.62095031  0.85673736    -0.90700
O470        O  0.30672611  0.71097034  0.87578351    -0.76700
O471        O  0.31236096  0.68190087  0.94009481    -0.86200
O472        O  0.34347199  0.67352310  0.88031277    -0.85900
O473        O  0.32580938  0.63573669  0.96696657    -0.72600
O474        O  0.35392993  0.62868568  0.91312240    -0.84700
Zr475      Zr  0.38718498  0.68079364  0.98306536     2.26400
Zr476      Zr  0.32248534  0.67171769  0.00108869     2.06300
Zr477      Zr  0.38147028  0.65603080  0.88825880     2.10000
Zr478      Zr  0.34023619  0.70852345  0.91503567     1.78800
O479        O  0.41173545  0.62648158  0.87742024    -0.93500
O480        O  0.31574941  0.73851147  0.94311788    -0.41400
O481        O  0.37826025  0.69146156  0.92203977    -0.78000
O482        O  0.34955307  0.69953412  0.97608161    -0.96700
O483        O  0.36037356  0.65379785  0.00904504    -0.90000
O484        O  0.39196631  0.64574505  0.94893095    -0.92800
C485        C  0.29239960  0.69632938  0.86175934     1.00900
C486        C  0.34859482  0.61822691  0.83784314     1.13900
C487        C  0.27281620  0.64167623  0.97290126     1.04600
O488        O  0.29305595  0.70201223  0.01199334    -0.95000
O489        O  0.33759995  0.69716568  0.04929709    -0.90700
O490        O  0.37621444  0.70276121  0.03617201    -0.83900
C491        C  0.35784258  0.70649305  0.05529594     1.11300
O492        O  0.34869403  0.57936521  0.96997162    -0.96900
Zr493      Zr  0.36437313  0.61907281  0.97406811     1.88900
O494        O  0.40849758  0.65572609  0.02486990    -0.73600
O495        O  0.31570001  0.65225415  0.05868565    -0.52900
O496        O  0.34630460  0.60362703  0.02870517    -0.97500
O497        O  0.38842971  0.58910143  0.94489478    -0.54800
O498        O  0.39840666  0.61810164  0.01417765    -0.74100
C499        C  0.41060009  0.63364864  0.03080426     0.98200
O500        O  0.41682261  0.70967978  0.00023568    -0.62900
O501        O  0.38650348  0.67459262  0.82955074    -0.57700
O502        O  0.42134201  0.69114646  0.94818210    -0.94400
O503        O  0.41793422  0.67787714  0.89059054    -0.92800
O504        O  0.35497982  0.72605008  0.85953925    -0.93200
O505        O  0.36104820  0.74532845  0.92491332    -0.92000
C506        C  0.42852588  0.68912944  0.91564888     1.17100
H507        H  0.34031561  0.67636860  0.85508963     0.33000
H508        H  0.34870064  0.71443987  0.98835163     0.43900
H509        H  0.40788057  0.63986062  0.95023782     0.37400
H510        H  0.31522734  0.62391632  0.97612136     0.33900
H511        H  0.31058473  0.74872062  0.92297699     0.25700
H512        H  0.30168114  0.66019296  0.06885011     0.31600
H513        H  0.35049152  0.61500222  0.04780624     0.37500
H514        H  0.34390966  0.73904940  0.85416373     0.32000
H515        H  0.38774559  0.69159803  0.83475905     0.30800
H516        H  0.42338937  0.63433252  0.86166712     0.32500
H517        H  0.40483709  0.59315983  0.95117776     0.31500
H518        H  0.37739072  0.74054258  0.93052440     0.35500
H519        H  0.40917285  0.72521578  0.99750672     0.28200
H520        H  0.27469139  0.62538368  0.87500915     0.32500
H521        H  0.33213749  0.58150452  0.96239778     0.35300
H522        H  0.40244930  0.66990432  0.82154166     0.27900
H523        H  0.41943241  0.70776896  0.02646084     0.40800
H524        H  0.28806307  0.69954956  0.03728992     0.30800
H525        H  0.30138772  0.73007749  0.95078197     0.38500
H526        H  0.38722358  0.59258115  0.91881358     0.30300
H527        H  0.31016502  0.63629185  0.05236542     0.30400
H528        H  0.28896732  0.60479948  0.89313061     0.30600
Zr529      Zr  0.18786227  0.33253105  0.41952030     2.17500
O530        O  0.21140156  0.36261708  0.38956077    -0.51700
O531        O  0.20952114  0.30772473  0.37609059    -0.74900
O532        O  0.22454291  0.34172585  0.45228631    -0.81700
O533        O  0.13295852  0.34911946  0.36316780    -0.83400
O534        O  0.22346887  0.32462178  0.50768179    -0.79100
O535        O  0.17055331  0.36023458  0.37558887    -0.90700
O536        O  0.19887872  0.26965455  0.38502634    -0.76700
O537        O  0.19469670  0.29751820  0.45345024    -0.86200
O538        O  0.16200761  0.30341648  0.39527895    -0.85900
O539        O  0.17882520  0.34234725  0.48156630    -0.72600
O540        O  0.14844061  0.34663900  0.42859300    -0.84700
Zr541      Zr  0.12060587  0.29216930  0.49910053     2.26400
Zr542      Zr  0.18508614  0.30653050  0.51487938     2.06300
Zr543      Zr  0.12269190  0.31744462  0.40427405     2.10000
Zr544      Zr  0.16863190  0.26866351  0.42989030     1.78800
O545        O  0.08790779  0.34103974  0.39144145    -0.93500
O546        O  0.19951581  0.24242005  0.45141031    -0.41400
O547        O  0.12912277  0.28201646  0.43772376    -0.78000
O548        O  0.15967502  0.27680864  0.49143061    -0.96700
O549        O  0.14599393  0.32117272  0.52375202    -0.90000
O550        O  0.11305998  0.32704565  0.46539922    -0.92800
C551        C  0.21069591  0.28557940  0.36898088     1.00900
C552        C  0.15087625  0.36249705  0.35860770     1.13900
C553        C  0.23378384  0.33671618  0.48310015     1.04600
O554        O  0.21370567  0.27515705  0.52313490    -0.95000
O555        O  0.17112826  0.28405133  0.56712647    -0.90700
O556        O  0.13387023  0.27296134  0.55380934    -0.83900
C557        C  0.15201302  0.27289300  0.57431805     1.11300
O558        O  0.15722353  0.39425935  0.48172259    -0.96900
Zr559      Zr  0.13899427  0.35585038  0.48966537     1.88900
O560        O  0.09399131  0.31688603  0.53390824    -0.73600
O561        O  0.19477414  0.32741190  0.57019695    -0.52900
O562        O  0.15035011  0.37305781  0.54712871    -0.97500
O563        O  0.11187464  0.38331575  0.46085109    -0.54800
O564        O  0.10506414  0.35513749  0.52936780    -0.74100
C565        C  0.09164861  0.33879904  0.54123343     0.98200
O566        O  0.09982556  0.25980294  0.52837168    -0.62900
O567        O  0.12156456  0.29995220  0.34436802    -0.57700
O568        O  0.08750385  0.27718053  0.46487024    -0.94400
O569        O  0.08771612  0.29243334  0.40828541    -0.92800
O570        O  0.15187309  0.24896798  0.37767684    -0.93200
O571        O  0.15435503  0.22954857  0.44508985    -0.92000
C572        C  0.07883732  0.27935764  0.43316487     1.17100
H573        H  0.16477095  0.30094267  0.36987946     0.33000
H574        H  0.16175849  0.26226720  0.50449673     0.43900
H575        H  0.09679933  0.33185360  0.46690571     0.37400
H576        H  0.18911220  0.35459621  0.49018846     0.33900
H577        H  0.20308037  0.23204594  0.43068814     0.25700
H578        H  0.20899002  0.31937672  0.57951367     0.31600
H579        H  0.16749331  0.37028339  0.54884095     0.37500
H580        H  0.16360683  0.23685039  0.37095563     0.32000
H581        H  0.12489680  0.28306723  0.34831649     0.30800
H582        H  0.08464967  0.33827408  0.36558081     0.32500
H583        H  0.09713785  0.38244309  0.47499000     0.31500
H584        H  0.13824819  0.23220494  0.45441747     0.35500
H585        H  0.08321650  0.26487331  0.53057635     0.28200
H586        H  0.22735037  0.35582684  0.38681564     0.32500
H587        H  0.14694652  0.40547556  0.49475007     0.35300
H588        H  0.10479749  0.30048860  0.33728013     0.27900
H589        H  0.09972861  0.24667662  0.51085481     0.40800
H590        H  0.22356063  0.28047357  0.54352317     0.30800
H591        H  0.21360384  0.25249953  0.45374374     0.38500
H592        H  0.10793258  0.37589099  0.43751416     0.30300
H593        H  0.20039862  0.34305592  0.56231231     0.30400
H594        H  0.21314790  0.37545137  0.40734638     0.30600
Zr595      Zr  0.31405563  0.14700157  0.12569023     2.17500
O596        O  0.28174023  0.12422112  0.15134222    -0.51700
O597        O  0.29508801  0.17517927  0.16745586    -0.74900
O598        O  0.32660055  0.11899861  0.17313649    -0.81700
O599        O  0.27939858  0.15690067  0.03735618    -0.83400
O600        O  0.36609628  0.12229731  0.18098937    -0.79100
O601        O  0.27844536  0.13809239  0.09144494    -0.90700
O602        O  0.31425041  0.20994171  0.16411437    -0.76700
O603        O  0.34510180  0.17041128  0.14953816    -0.86200
O604        O  0.31161409  0.18390635  0.09500299    -0.85900
O605        O  0.34967189  0.12577508  0.11074482    -0.72600
O606        O  0.31977584  0.13884715  0.06228263    -0.84700
Zr607      Zr  0.38467898  0.17874606  0.04415295     2.26400
Zr608      Zr  0.38067589  0.14941601  0.13566943     2.06300
Zr609      Zr  0.31770078  0.17596577  0.03216045     2.10000
Zr610      Zr  0.34309272  0.20700016  0.11777816     1.78800
O611        O  0.30658969  0.16096349  0.97316276    -0.93500
O612        O  0.35956393  0.22715754  0.16992167    -0.41400
O613        O  0.34881446  0.19964563  0.05541329    -0.78000
O614        O  0.37909103  0.18713332  0.10695150    -0.96700
O615        O  0.38698897  0.14160494  0.07295103    -0.90000
O616        O  0.35383213  0.15604701  0.01828242    -0.92800
C617        C  0.29823961  0.19674062  0.17696484     1.00900
C618        C  0.26934893  0.14362286  0.06085733     1.13900
C619        C  0.34610175  0.11303534  0.18841058     1.04600
O620        O  0.39151581  0.16486350  0.19451186    -0.95000
O621        O  0.42031901  0.16572618  0.13024107    -0.90700
O622        O  0.42202684  0.18298872  0.07490421    -0.83900
C623        C  0.43094027  0.17753882  0.10552302     1.11300
O624        O  0.33038185  0.08477145  0.05103740    -0.96900
Zr625      Zr  0.35598320  0.11908120  0.04773334     1.88900
O626        O  0.40777515  0.15149808  0.00819648    -0.73600
O627        O  0.40750474  0.11605728  0.13939134    -0.52900
O628        O  0.37845839  0.08699158  0.07455047    -0.97500
O629        O  0.34086955  0.10572781  0.98968605    -0.54800
O630        O  0.39005446  0.11619849  0.00769589    -0.74100
C631        C  0.40667782  0.13004544  0.99789538     0.98200
O632        O  0.40768118  0.21217939  0.02269824    -0.62900
O633        O  0.28918505  0.20801712  0.02992362    -0.57700
O634        O  0.37398332  0.20153998  0.99143084    -0.94400
O635        O  0.33399930  0.20291496  0.98720583    -0.92800
O636        O  0.31765996  0.23657656  0.09057809    -0.93200
O637        O  0.36760487  0.24135338  0.10668428    -0.92000
C638        C  0.35480454  0.20896914  0.97718613     1.17100
H639        H  0.29656159  0.19136850  0.09885523     0.33000
H640        H  0.39093762  0.19761915  0.11612599     0.43900
H641        H  0.35595129  0.15444802  0.99254667     0.37400
H642        H  0.34972095  0.11008621  0.12057279     0.33900
H643        H  0.34844577  0.24012225  0.17528820     0.25700
H644        H  0.41807687  0.11772274  0.11832381     0.31600
H645        H  0.37824744  0.07419788  0.05652427     0.37500
H646        H  0.32223720  0.25159827  0.10201546     0.32000
H647        H  0.29806932  0.22186855  0.02129876     0.30800
H648        H  0.29213458  0.16974546  0.96674849     0.32500
H649        H  0.35307967  0.10959917  0.97162519     0.31500
H650        H  0.37371628  0.23910668  0.08192403     0.35500
H651        H  0.41049295  0.22211617  0.04415743     0.28200
H652        H  0.28212600  0.12716297  0.17763383     0.32500
H653        H  0.33835321  0.07219309  0.03719157     0.35300
H654        H  0.27863693  0.20398773  0.00965589     0.27900
H655        H  0.42332611  0.20584899  0.01604006     0.40800
H656        H  0.37906169  0.17641300  0.20043830     0.30800
H657        H  0.35769048  0.21602053  0.19025674     0.38500
H658        H  0.32775152  0.11661619  0.98416181     0.30300
H659        H  0.41758759  0.11948254  0.16047366     0.30400
H660        H  0.28616863  0.10747873  0.14854467     0.30600
Zr661      Zr  0.59640285  0.55139733  0.36774869     2.17500
O662        O  0.62427552  0.52203611  0.38993538    -0.51700
O663        O  0.57152875  0.53034767  0.41176570    -0.74900
O664        O  0.62410326  0.56565369  0.41341761    -0.81700
O665        O  0.58433581  0.51720786  0.28006787    -0.83400
O666        O  0.61890702  0.60492171  0.42222338    -0.79100
O667        O  0.60702355  0.51739451  0.33041385    -0.90700
O668        O  0.53484400  0.54618938  0.40995462    -0.76700
O669        O  0.57248124  0.58121008  0.39433243    -0.86200
O670        O  0.55835474  0.54740249  0.34120729    -0.85900
O671        O  0.61485354  0.58829230  0.35224210    -0.72600
O672        O  0.60127969  0.55704468  0.30386517    -0.84700
Zr673      Zr  0.55919405  0.62045605  0.28937654     2.26400
Zr674      Zr  0.59027186  0.61812198  0.37875327     2.06300
Zr675      Zr  0.56286592  0.55420089  0.27785899     2.10000
Zr676      Zr  0.53482696  0.57767963  0.36679953     1.78800
O677        O  0.57143536  0.54070691  0.21705131    -0.93500
O678        O  0.52374488  0.59610947  0.42364846    -0.41400
O679        O  0.53901904  0.58453331  0.30340606    -0.78000
O680        O  0.55210258  0.61463632  0.35263169    -0.96700
O681        O  0.59697360  0.62401783  0.31566695    -0.90000
O682        O  0.58201327  0.59033674  0.26191038    -0.92800
C683        C  0.54989205  0.53145934  0.42201638     1.00900
C684        C  0.59994345  0.50798756  0.30079857     1.13900
C685        C  0.62921629  0.58531525  0.42851842     1.04600
O686        O  0.57396531  0.62654811  0.43808438    -0.95000
O687        O  0.57250769  0.65718938  0.37326193    -0.90700
O688        O  0.55248744  0.65697299  0.32033382    -0.83900
C689        C  0.55884536  0.66671311  0.34977297     1.11300
O690        O  0.65444730  0.56815615  0.29234489    -0.96900
Zr691      Zr  0.61979484  0.59339297  0.28900060     1.88900
O692        O  0.58448123  0.64096586  0.24684212    -0.73600
O693        O  0.62038859  0.64834886  0.38378255    -0.52900
O694        O  0.65501715  0.61436458  0.30780607    -0.97500
O695        O  0.62952669  0.57831236  0.22925377    -0.54800
O696        O  0.62210282  0.62811793  0.25215682    -0.74100
C697        C  0.60645574  0.64189054  0.23928198     0.98200
O698        O  0.53208905  0.65137649  0.27003843    -0.62900
O699        O  0.53068852  0.52629454  0.28423399    -0.57700
O700        O  0.53223245  0.60854716  0.24278024    -0.94400
O701        O  0.53467558  0.56916207  0.23367812    -0.92800
O702        O  0.50270944  0.55221488  0.34821509    -0.93200
O703        O  0.49711768  0.59787618  0.36253340    -0.92000
C704        C  0.52619343  0.58964176  0.22672179     1.17100
H705        H  0.55191495  0.53196376  0.34565513     0.33000
H706        H  0.54131777  0.62600552  0.36245938     0.43900
H707        H  0.58261461  0.59235828  0.23607884     0.37400
H708        H  0.63073803  0.58947355  0.36091528     0.33900
H709        H  0.50908688  0.58807063  0.43106956     0.25700
H710        H  0.61971197  0.65344158  0.40927770     0.31600
H711        H  0.64908861  0.62908450  0.31877799     0.37500
H712        H  0.49417743  0.54842815  0.37076095     0.32000
H713        H  0.51633503  0.53550379  0.27878984     0.30800
H714        H  0.55940518  0.52858819  0.21205572     0.32500
H715        H  0.62258370  0.58959662  0.21191711     0.31500
H716        H  0.50002149  0.61122699  0.34597136     0.35500
H717        H  0.53373344  0.65270023  0.24353256     0.28200
H718        H  0.62237826  0.52150631  0.41646921     0.32500
H719        H  0.66552277  0.57432323  0.27403341     0.35300
H720        H  0.53244542  0.51547867  0.26351676     0.27900
H721        H  0.51603830  0.64525982  0.27421574     0.40800
H722        H  0.57521625  0.61158504  0.45162089     0.30800
H723        H  0.53562993  0.59058119  0.44121204     0.38500
H724        H  0.61989911  0.56392930  0.22671439     0.30300
H725        H  0.63553949  0.63985712  0.38163169     0.30400
H726        H  0.64017602  0.52854980  0.38569768     0.30600
Zr727      Zr  0.41269452  0.42495141  0.66526576     2.17500
O728        O  0.38636176  0.44904533  0.62855489    -0.51700
O729        O  0.43973335  0.44128266  0.61904042    -0.74900
O730        O  0.40336578  0.46310015  0.69238900    -0.81700
O731        O  0.39313370  0.36824494  0.61690300    -0.83400
O732        O  0.41957083  0.46547400  0.74835052    -0.79100
O733        O  0.38403763  0.40692097  0.62421177    -0.90700
O734        O  0.47664040  0.42873004  0.63155569    -0.76700
O735        O  0.44715145  0.43216491  0.70020151    -0.86200
O736        O  0.44038414  0.39588107  0.64661578    -0.85900
O737        O  0.40128531  0.42066773  0.72806291    -0.72600
O738        O  0.39546533  0.38776514  0.68071146    -0.84700
Zr739      Zr  0.44677332  0.36073851  0.75730267     2.26400
Zr740      Zr  0.43654512  0.42716050  0.76243203     2.06300
Zr741      Zr  0.42320943  0.35873023  0.66152068     2.10000
Zr742      Zr  0.47458583  0.40283322  0.68226438     1.78800
O743        O  0.39817207  0.32402986  0.66051082    -0.93500
O744        O  0.50082625  0.43509773  0.69784197    -0.41400
O745        O  0.45807573  0.36543298  0.69571752    -0.78000
O746        O  0.46467931  0.39816795  0.74408944    -0.96700
O747        O  0.41955537  0.38975000  0.77721558    -0.90000
O748        O  0.41205748  0.35340793  0.72339829    -0.92800
C749        C  0.46201294  0.44032756  0.61243519     1.00900
C750        C  0.38076273  0.38660591  0.60974531     1.13900
C751        C  0.40770204  0.47402989  0.72193444     1.04600
O752        O  0.46608097  0.45737244  0.77255003    -0.95000
O753        O  0.46167422  0.41627400  0.81356170    -0.90700
O754        O  0.46736905  0.37674428  0.80880194    -0.83900
C755        C  0.47071879  0.39664926  0.82404634     1.11300
O756        O  0.34761789  0.40342174  0.73573315    -0.96900
Zr757      Zr  0.38500859  0.38287685  0.74301761     1.88900
O758        O  0.41959244  0.33664215  0.79169432    -0.73600
O759        O  0.41335807  0.43744177  0.81537933    -0.52900
O760        O  0.37123776  0.40047923  0.79914651    -0.97500
O761        O  0.35432201  0.35872557  0.71631214    -0.54800
O762        O  0.38241133  0.35030726  0.78584764    -0.74100
C763        C  0.39761497  0.33598172  0.79911268     0.98200
O764        O  0.47056528  0.33639511  0.79754497    -0.62900
O765        O  0.43914295  0.34840117  0.60255376    -0.57700
O766        O  0.46475400  0.32752749  0.72591253    -0.94400
O767        O  0.45126618  0.32659597  0.66857525    -0.92800
O768        O  0.49507394  0.37787303  0.63917704    -0.93200
O769        O  0.51305747  0.39010677  0.70350947    -0.92000
C770        C  0.46401470  0.31839338  0.69428258     1.17100
H771        H  0.44361025  0.39651175  0.62110060     0.33000
H772        H  0.47939108  0.40008641  0.75642598     0.43900
H773        H  0.40612914  0.33767208  0.72685365     0.37400
H774        H  0.38936697  0.43197892  0.73456939     0.33900
H775        H  0.49238345  0.44957432  0.69051849     0.25700
H776        H  0.42119485  0.45151766  0.82538804     0.31600
H777        H  0.38052775  0.39283107  0.81845316     0.37500
H778        H  0.48414818  0.36470757  0.63446351     0.32000
H779        H  0.42915071  0.33533148  0.59396406     0.30800
H780        H  0.39665310  0.31996004  0.63468432     0.32500
H781        H  0.34458259  0.35342259  0.73688355     0.31500
H782        H  0.50980248  0.37593558  0.71820544     0.35500
H783        H  0.46561486  0.31993569  0.79344890     0.28200
H784        H  0.39457344  0.46417475  0.62470296     0.32500
H785        H  0.33663984  0.39595203  0.75301200     0.35300
H786        H  0.43519665  0.36173872  0.58648905     0.27900
H787        H  0.48685987  0.33726633  0.78831063     0.40800
H788        H  0.45915342  0.46779975  0.79110870     0.30800
H789        H  0.50069610  0.43559454  0.72451978     0.38500
H790        H  0.36252383  0.34437468  0.70791523     0.30300
H791        H  0.39826970  0.44341008  0.80567335     0.30400
H792        H  0.37274893  0.45288491  0.64416668     0.30600
Zr793      Zr  0.81940018  0.14311144  0.41195578     2.17500
O794        O  0.79205140  0.11777858  0.37950817    -0.51700
O795        O  0.80070766  0.16960326  0.36829198    -0.74900
O796        O  0.78264529  0.13576307  0.44528630    -0.81700
O797        O  0.87106608  0.12106921  0.35452873    -0.83400
O798        O  0.78485385  0.15399486  0.49959638    -0.79100
O799        O  0.83256868  0.11426884  0.36770789    -0.90700
O800        O  0.81640088  0.20609079  0.37309535    -0.76700
O801        O  0.81607991  0.17928389  0.44386785    -0.86200
O802        O  0.84864504  0.16845706  0.38683102    -0.85900
O803        O  0.82705918  0.13293690  0.47412814    -0.72600
O804        O  0.85667610  0.12404291  0.42198772    -0.84700
Zr805      Zr  0.89050497  0.17668981  0.49104727     2.26400
Zr806      Zr  0.82441725  0.16973393  0.50562744     2.06300
Zr807      Zr  0.88571881  0.14977313  0.39716003     2.10000
Zr808      Zr  0.84572288  0.20432100  0.41960411     1.78800
O809        O  0.91599906  0.12031160  0.38605492    -0.93500
O810        O  0.81724174  0.23223073  0.44386543    -0.41400
O811        O  0.88333994  0.18632871  0.42886973    -0.78000
O812        O  0.85333155  0.19598104  0.48132986    -0.96700
O813        O  0.86168166  0.15121872  0.51623678    -0.90000
O814        O  0.89408402  0.14062243  0.45896693    -0.92800
C815        C  0.80239581  0.19126597  0.35875119     1.00900
C816        C  0.85157674  0.11016228  0.35007645     1.13900
C817        C  0.77392048  0.14161931  0.47604721     1.04600
O818        O  0.79715845  0.20187836  0.51744894    -0.95000
O819        O  0.83962765  0.19400759  0.55440024    -0.90700
O820        O  0.87881251  0.19899113  0.54424727    -0.83900
C821        C  0.85981106  0.20277777  0.56215387     1.11300
O822        O  0.84462522  0.07803364  0.47559284    -0.96900
Zr823      Zr  0.86494717  0.11533364  0.48383833     1.88900
O824        O  0.91215782  0.15018855  0.53106265    -0.73600
O825        O  0.81514473  0.14938156  0.56163954    -0.52900
O826        O  0.84789105  0.10116996  0.54008448    -0.97500
O827        O  0.89019061  0.08445922  0.45946834    -0.54800
O828        O  0.89727203  0.11328997  0.52634960    -0.74100
C829        C  0.91169770  0.12826311  0.53950312     0.98200
O830        O  0.91445628  0.20843409  0.51556884    -0.62900
O831        O  0.89078406  0.16735269  0.33767096    -0.57700
O832        O  0.92649060  0.18414334  0.45679345    -0.94400
O833        O  0.92407557  0.16840357  0.40057973    -0.92800
O834        O  0.86329284  0.22421128  0.36813482    -0.93200
O835        O  0.86581310  0.24122182  0.43194992    -0.92000
C836        C  0.93479815  0.18000505  0.42519713     1.17100
H837        H  0.84640438  0.17076983  0.36125234     0.33000
H838        H  0.85273262  0.21101282  0.49332046     0.43900
H839        H  0.90972855  0.13413910  0.46131632     0.37400
H840        H  0.81574227  0.12178703  0.48322945     0.33900
H841        H  0.81948053  0.24676838  0.42956537     0.25700
H842        H  0.80099637  0.15752200  0.57099456     0.31600
H843        H  0.85322711  0.11243091  0.55867234     0.37500
H844        H  0.87251556  0.21186528  0.35573767     0.32000
H845        H  0.90174958  0.18060613  0.34122729     0.30800
H846        H  0.92207059  0.12400978  0.36167900     0.32500
H847        H  0.89709349  0.07657321  0.48078707     0.31500
H848        H  0.88069164  0.23649383  0.44378689     0.35500
H849        H  0.93030434  0.20168150  0.51959545     0.28200
H850        H  0.77700649  0.12653406  0.37824205     0.32500
H851        H  0.85239034  0.06680197  0.49219674     0.35300
H852        H  0.89999178  0.15564948  0.32381857     0.27900
H853        H  0.91641244  0.21994152  0.49573503     0.40800
H854        H  0.78990090  0.20538382  0.49381053     0.30800
H855        H  0.80174352  0.22623687  0.43603031     0.38500
H856        H  0.90354268  0.09273599  0.44801928     0.30300
H857        H  0.80943255  0.13370635  0.55412147     0.30400
H858        H  0.78891484  0.10425197  0.39561611     0.30600
Zr859      Zr  0.68433073  0.32409388  0.12580496     2.17500
O860        O  0.71560493  0.34391223  0.15857000    -0.51700
O861        O  0.70456870  0.29515056  0.16485692    -0.74900
O862        O  0.66731629  0.34964670  0.17414274    -0.81700
O863        O  0.72195801  0.32163836  0.03972276    -0.83400
O864        O  0.62818803  0.34307772  0.17693089    -0.79100
O865        O  0.71999404  0.33855649  0.09504262    -0.90700
O866        O  0.68819902  0.25918235  0.15824383    -0.76700
O867        O  0.65462134  0.29732142  0.14651525    -0.86200
O868        O  0.69143238  0.28869741  0.09190775    -0.85900
O869        O  0.64704243  0.34195931  0.10954891    -0.72600
O870        O  0.68069746  0.33596501  0.06300056    -0.84700
Zr871      Zr  0.61816750  0.29086037  0.03705035     2.26400
Zr872      Zr  0.61734692  0.31496311  0.13046650     2.06300
Zr873      Zr  0.68559329  0.30040627  0.03033690     2.10000
Zr874      Zr  0.66051018  0.26321645  0.11071700     1.78800
O875        O  0.69517985  0.32187350  0.97546215    -0.93500
O876        O  0.64223149  0.24360858  0.16209145    -0.41400
O877        O  0.65362648  0.29367939  0.06914094    -0.78000
O878        O  0.62257261  0.27851452  0.09851262    -0.96700
O879        O  0.61149645  0.32630188  0.06865102    -0.90000
O880        O  0.64804846  0.31588231  0.01299322    -0.92800
C881        C  0.70310961  0.27306008  0.17233676     1.00900
C882        C  0.73053910  0.33447751  0.06491078     1.13900
C883        C  0.64673273  0.35372754  0.18783747     1.04600
O884        O  0.60833508  0.29615914  0.18783671    -0.95000
O885        O  0.58005702  0.29438227  0.11940849    -0.90700
O886        O  0.58000260  0.28108548  0.06163477    -0.83900
C887        C  0.57074239  0.28292075  0.09307651     1.11300
O888        O  0.66248429  0.38853244  0.05681463    -0.96900
Zr889      Zr  0.64238795  0.35120789  0.04703233     1.88900
O890        O  0.59199872  0.31679616  0.00400833    -0.73600
O891        O  0.58429638  0.34191703  0.13790288    -0.52900
O892        O  0.61891286  0.38282340  0.07291656    -0.97500
O893        O  0.65840037  0.36768988  0.99144733    -0.54800
O894        O  0.60901422  0.35271820  0.00610173    -0.74100
C895        C  0.59273539  0.33868122  0.99566518     0.98200
O896        O  0.60885113  0.24936943  0.02680394    -0.62900
O897        O  0.71158054  0.26663133  0.02269434    -0.57700
O898        O  0.63372657  0.27329968  0.98242075    -0.94400
O899        O  0.67318723  0.26957448  0.98879079    -0.92800
O900        O  0.68530060  0.23772130  0.07419717    -0.93200
O901        O  0.64221767  0.22923677  0.08246549    -0.92000
C902        C  0.65367230  0.26467199  0.97323489     1.17100
H903        H  0.70694054  0.28228467  0.09618446     0.33000
H904        H  0.61158114  0.26630347  0.10552759     0.43900
H905        H  0.64652153  0.31821377  0.98730609     0.37400
H906        H  0.64526632  0.35725441  0.12029635     0.33900
H907        H  0.65226984  0.22972251  0.16698741     0.25700
H908        H  0.57660089  0.33687490  0.16056771     0.31600
H909        H  0.60706249  0.37476112  0.08802860     0.37500
H910        H  0.68738672  0.22324735  0.08871106     0.32000
H911        H  0.72103164  0.27046995  0.00104551     0.30800
H912        H  0.69395542  0.31002424  0.95603297     0.32500
H913        H  0.65187014  0.35810877  0.97161123     0.31500
H914        H  0.62848543  0.22546985  0.09782759     0.35500
H915        H  0.59994002  0.24865365  0.00390027     0.28200
H916        H  0.71191724  0.34184382  0.18444607     0.32500
H917        H  0.65529148  0.39994491  0.03988794     0.35300
H918        H  0.72295554  0.26745612  0.04279661     0.27900
H919        H  0.62372946  0.24083639  0.02219104     0.40800
H920        H  0.62318910  0.29661519  0.20170023     0.30800
H921        H  0.64477513  0.25418921  0.18289428     0.38500
H922        H  0.67533634  0.36366899  0.99203216     0.30300
H923        H  0.59126808  0.35740008  0.14360168     0.30400
H924        H  0.71348412  0.36086347  0.15351251     0.30600
Zr925      Zr  0.09530784  0.55143961  0.15988149     2.17500
O926        O  0.12040762  0.52534556  0.12442490    -0.51700
O927        O  0.06808636  0.53185485  0.11677665    -0.74900
O928        O  0.10585522  0.51501838  0.19229706    -0.81700
O929        O  0.11556605  0.60612836  0.10668673    -0.83400
O930        O  0.08821965  0.51544230  0.24731560    -0.79100
O931        O  0.12481553  0.56788194  0.11821442    -0.90700
O932        O  0.03089719  0.54498194  0.12656814    -0.76700
O933        O  0.06074132  0.54590941  0.19544983    -0.86200
O934        O  0.06720510  0.57903581  0.13708089    -0.85900
O935        O  0.10700065  0.55977415  0.22154941    -0.72600
O936        O  0.11132316  0.59000748  0.16996982    -0.84700
Zr937      Zr  0.05904718  0.61955998  0.24195924     2.26400
Zr938      Zr  0.07193495  0.55451916  0.25654072     2.06300
Zr939      Zr  0.08335182  0.61744935  0.14644650     2.10000
Zr940      Zr  0.03281458  0.57375584  0.17311491     1.78800
O941        O  0.10800239  0.65095216  0.13103606    -0.93500
O942        O  0.00515490  0.54391794  0.19366437    -0.41400
O943        O  0.04805856  0.61245866  0.18078588    -0.78000
O944        O  0.04254147  0.58111863  0.23443353    -0.96700
O945        O  0.08744573  0.59304525  0.26595800    -0.90000
O946        O  0.09371005  0.62624134  0.20749766    -0.92800
C947        C  0.04582078  0.53234100  0.10977624     1.00900
C948        C  0.12829479  0.58766833  0.10204634     1.13900
C949        C  0.10064775  0.50547240  0.22276932     1.04600
O950        O  0.04414375  0.52477697  0.27658919    -0.95000
O951        O  0.04934668  0.56898237  0.30818468    -0.90700
O952        O  0.04270818  0.60804097  0.29931960    -0.83900
C953        C  0.04061671  0.58898448  0.31749355     1.11300
O954        O  0.16071933  0.58182979  0.22553006    -0.96900
Zr955      Zr  0.12167592  0.59912892  0.23084250     1.88900
O956        O  0.08367376  0.64514851  0.27755104    -0.73600
O957        O  0.09819723  0.54699804  0.30709066    -0.52900
O958        O  0.13972637  0.58691329  0.28737677    -0.97500
O959        O  0.14988231  0.62411303  0.19960556    -0.54800
O960        O  0.12098441  0.63317146  0.27109388    -0.74100
C961        C  0.10556108  0.64716832  0.28447969     0.98200
O962        O  0.02294720  0.63715656  0.26531587    -0.62900
O963        O  0.06436209  0.61928389  0.08763933    -0.57700
O964        O  0.04869370  0.65574953  0.21128730    -0.94400
O965        O  0.06188987  0.65468962  0.15341729    -0.92800
O966        O  0.01334580  0.59347223  0.12304034    -0.93200
O967        O  0.99450800  0.58941039  0.19012809    -0.92000
C968        C  0.05109598  0.66473954  0.17979227     1.17100
H969        H  0.06419270  0.57669623  0.11174555     0.33000
H970        H  0.02824015  0.57964577  0.24824056     0.43900
H971        H  0.09906936  0.64231398  0.20925854     0.37400
H972        H  0.11910882  0.54906081  0.22959900     0.33900
H973        H  0.00535489  0.54506567  0.22028879     0.25700
H974        H  0.09666691  0.56100415  0.32274887     0.31600
H975        H  0.13839035  0.56956362  0.28768503     0.37500
H976        H  0.01738770  0.61029109  0.12577052     0.32000
H977        H  0.05135194  0.63069820  0.09060945     0.30800
H978        H  0.10214438  0.65635016  0.10729642     0.32500
H979        H  0.14822222  0.63975276  0.21101838     0.31500
H980        H  0.99796249  0.60496553  0.20080743     0.35500
H981        H  0.01215456  0.63822174  0.24445187     0.28200
H982        H  0.11204072  0.51011150  0.12337557     0.32500
H983        H  0.15799110  0.56567662  0.21657637     0.35300
H984        H  0.07581577  0.62741795  0.07189013     0.27900
H985        H  0.02684744  0.65364048  0.27133857     0.40800
H986        H  0.03613485  0.51957750  0.25431582     0.30800
H987        H  0.01289618  0.52868817  0.18843506     0.38500
H988        H  0.14330793  0.62621208  0.17511330     0.30300
H989        H  0.09048960  0.53421550  0.32082655     0.30400
H990        H  0.13447809  0.52229071  0.13944765     0.30600
Zr991      Zr  0.90630915  0.41950079  0.87374777     2.17500
O992        O  0.87953204  0.45043642  0.89385024    -0.51700
O993        O  0.93336579  0.44133266  0.91418516    -0.74900
O994        O  0.88014026  0.40717965  0.92382359    -0.81700
O995        O  0.91372855  0.45002333  0.78079234    -0.83400
O996        O  0.88742152  0.36876141  0.93713295    -0.79100
O997        O  0.89660535  0.45376764  0.83596602    -0.90700
O998        O  0.96993498  0.42601581  0.90792708    -0.76700
O999        O  0.93277843  0.39169571  0.89986567    -0.86200
O1000       O  0.94195831  0.42248433  0.83988983    -0.85900
O1001       O  0.88790149  0.38155148  0.86534621    -0.72600
O1002       O  0.89704339  0.40969599  0.81189607    -0.84700
Zr1003     Zr  0.94104532  0.34678308  0.79864090     2.26400
Zr1004     Zr  0.91471938  0.35386740  0.89216275     2.06300
Zr1005     Zr  0.93312347  0.41201001  0.77852025     2.10000
Zr1006     Zr  0.96814319  0.39442604  0.86536927     1.78800
O1007       O  0.91464274  0.42182007  0.72124113    -0.93500
O1008       O  0.98748356  0.37977902  0.91955406    -0.41400
O1009       O  0.95983631  0.38431332  0.80424653    -0.78000
O1010       O  0.95095649  0.35660896  0.85958869    -0.96700
O1011       O  0.90523419  0.34344455  0.83129426    -0.90000
O1012       O  0.91515895  0.37435364  0.77118729    -0.92800
C1013       C  0.95551732  0.44065957  0.92183162     1.00900
C1014       C  0.90130605  0.46131127  0.80397870     1.13900
C1015       C  0.87631702  0.38817882  0.94202362     1.04600
O1016       O  0.93390156  0.34868027  0.95026536    -0.95000
O1017       O  0.93442173  0.31561470  0.89076265    -0.90700
O1018       O  0.94780497  0.31095263  0.83332786    -0.83900
C1019       C  0.94522624  0.30399488  0.86603383     1.11300
O1020       O  0.84291915  0.39356157  0.80784729    -0.96900
Zr1021     Zr  0.87961511  0.37157086  0.80438895     1.88900
O1022       O  0.91473411  0.32445467  0.75979306    -0.73600
O1023       O  0.88529221  0.32359030  0.90295176    -0.52900
O1024       O  0.84716429  0.35074772  0.83292078    -0.97500
O1025       O  0.86518767  0.38342891  0.74521864    -0.54800
O1026       O  0.87731635  0.33417526  0.77305923    -0.74100
C1027       C  0.89248693  0.32127699  0.75689674     0.98200
O1028       O  0.97470552  0.32371021  0.77791367    -0.62900
O1029       O  0.96603154  0.43859021  0.76837762    -0.57700
O1030       O  0.96340864  0.35635663  0.74520461    -0.94400
O1031       O  0.95551045  0.39400008  0.72898413    -0.92800
O1032       O  0.99626155  0.42066680  0.83659404    -0.93200
O1033       O  0.00497673  0.37337436  0.85585490    -0.92000
C1034       C  0.96532907  0.37386001  0.72363076     1.17100
H1035       H  0.94822444  0.43821026  0.84158308     0.33000
H1036       H  0.96265394  0.34594018  0.86896783     0.43900
H1037       H  0.91290388  0.37081916  0.74597100     0.37400
H1038       H  0.87251866  0.38060714  0.87599479     0.33900
H1039       H  0.99950380  0.39172674  0.92550764     0.25700
H1040       H  0.88756656  0.31892283  0.92843698     0.31600
H1041       H  0.85372141  0.33515003  0.83928358     0.37500
H1042       H  0.01032446  0.42015415  0.85228013     0.32000
H1043       H  0.96143370  0.44783217  0.74686926     0.30800
H1044       H  0.92632300  0.43168776  0.70848368     0.32500
H1045       H  0.87256252  0.37244762  0.72787615     0.31500
H1046       H  0.00108035  0.36093935  0.83820301     0.35500
H1047       H  0.96888290  0.30758406  0.77351146     0.28200
H1048       H  0.88234805  0.45226462  0.92003352     0.32500
H1049       H  0.84642985  0.40682935  0.82421851     0.35300
H1050       H  0.96558653  0.45006664  0.78835957     0.27900
H1051       H  0.98535645  0.32233371  0.79891679     0.40800
H1052       H  0.92476032  0.33616798  0.96241935     0.30800
H1053       H  0.97553265  0.38130784  0.93884563     0.38500
H1054       H  0.87288262  0.39871825  0.74044962     0.30300
H1055       H  0.87002664  0.33198514  0.90272419     0.30400
H1056       H  0.86351640  0.44377179  0.89190415     0.30600
C1057       C  0.96613203  0.45732580  0.94847947     0.01000
C1058       C  0.95632588  0.46074953  0.98318077     0.03800
C1059       C  0.96919644  0.47290146  0.01006193    -0.12300
C1060       C  0.99229788  0.48085858  0.00299024     0.23100
C1061       C  0.00192981  0.47757775  0.96841038    -0.12900
C1062       C  0.98859683  0.46695838  0.94100294     0.04500
C1063       C  0.00637059  0.49378312  0.03074566     0.26900
C1064       C  0.00931538  0.51832494  0.02751279    -0.13500
C1065       C  0.02386587  0.53053461  0.05178030     0.05000
C1066       C  0.03571514  0.51843588  0.07970759    -0.09500
C1067       C  0.03332647  0.49383644  0.08244674     0.05800
C1068       C  0.01859385  0.48155729  0.05820041    -0.13900
Br1069     Br  0.03400815  0.48696041  0.95893804    -0.05900
Br1070     Br  0.92592053  0.44780108  0.99480331    -0.00300
Br1071     Br  0.02756584  0.56414295  0.04674645     0.00100
Br1072     Br  0.01490551  0.44801684  0.06283697    -0.04300
Br1073     Br  0.00106340  0.46676785  0.89255849     0.00200
Br1074     Br  0.95545305  0.47823145  0.05687924    -0.03600
Br1075     Br  0.99317744  0.53534026  0.98978333    -0.04400
Br1076     Br  0.04954545  0.47720488  0.12032746    -0.00500
C1077       C  0.75423733  0.34485035  0.05794181     0.01000
C1078       C  0.77214822  0.33033323  0.04357806     0.03800
C1079       C  0.79291425  0.34022946  0.02958382    -0.12300
C1080       C  0.79663603  0.36470572  0.03129771     0.23100
C1081       C  0.77990120  0.37901417  0.04895394    -0.12900
C1082       C  0.75867025  0.36919710  0.06204165     0.04500
C1083       C  0.81703405  0.37524363  0.01153443     0.26900
C1084       C  0.84010377  0.37323895  0.02519095    -0.13500
C1085       C  0.85960475  0.37890205  0.00323109     0.05000
C1086       C  0.85621736  0.38731795  0.96776624    -0.09500
C1087       C  0.83301210  0.39077641  0.95501737     0.05800
C1088       C  0.81357109  0.38478707  0.97682026    -0.13900
Br1089     Br  0.78580549  0.41225314  0.05360508    -0.05900
Br1090     Br  0.76863430  0.29655047  0.04391822    -0.00300
Br1091     Br  0.89109002  0.37420402  0.02120446     0.00100
Br1092     Br  0.78203221  0.38808233  0.95812439    -0.04300
Br1093     Br  0.73534580  0.38949042  0.08349767     0.00200
Br1094     Br  0.81569828  0.32023817  0.00599204    -0.03600
Br1095     Br  0.84490768  0.36180719  0.07357038    -0.04400
Br1096     Br  0.82750308  0.40100932  0.90610637    -0.00500
C1097       C  0.88403669  0.30167154  0.73302737     0.01000
C1098       C  0.89848890  0.28157359  0.72694345     0.03800
C1099       C  0.89190430  0.26440611  0.70159143    -0.12300
C1100       C  0.87094513  0.26685543  0.68192733     0.23100
C1101       C  0.85569896  0.28574174  0.68931488    -0.12900
C1102       C  0.86198230  0.30302213  0.71482781     0.04500
C1103       C  0.86617684  0.25077039  0.65117705     0.26900
C1104       C  0.87159374  0.25816803  0.61585517    -0.13500
C1105       C  0.86878013  0.24264484  0.58671571     0.05000
C1106       C  0.86122713  0.21933874  0.59279393    -0.09500
C1107       C  0.85529372  0.21208079  0.62801749     0.05800
C1108       C  0.85746437  0.22787791  0.65708887    -0.13900
Br1109     Br  0.82647341  0.28819665  0.66297720    -0.05900
Br1110     Br  0.92740357  0.27641472  0.75319285    -0.00300
Br1111     Br  0.87441479  0.25374621  0.53824683     0.00100
Br1112     Br  0.84876720  0.21819169  0.70510728    -0.04300
Br1113     Br  0.84014917  0.32867769  0.72239167     0.00200
Br1114     Br  0.91210695  0.23762790  0.69265676    -0.03600
Br1115     Br  0.88334564  0.28956181  0.60749933    -0.04400
Br1116     Br  0.84532024  0.18018670  0.63673470    -0.00500
C1117       C  0.78771745  0.20011446  0.32874793     0.01000
C1118       C  0.79851879  0.21258710  0.30024413     0.03800
C1119       C  0.78472944  0.22476637  0.27498456    -0.12300
C1120       C  0.76006794  0.22336738  0.27666826     0.23100
C1121       C  0.74923732  0.20924362  0.30313002    -0.12900
C1122       C  0.76299542  0.19802153  0.32967162     0.04500
C1123       C  0.74570280  0.23648991  0.25003052     0.26900
C1124       C  0.73682664  0.25899949  0.25839001    -0.13500
C1125       C  0.72368755  0.27170246  0.23264201     0.05000
C1126       C  0.71967820  0.26197138  0.19818421    -0.09500
C1127       C  0.72955183  0.23973895  0.18957917     0.05800
C1128       C  0.74195081  0.22686169  0.21569527    -0.13900
Br1129     Br  0.71555556  0.20546268  0.30288121    -0.05900
Br1130     Br  0.83225316  0.21202066  0.29445560    -0.00300
Br1131     Br  0.71029626  0.30172295  0.24558820     0.00100
Br1132     Br  0.75346920  0.19566403  0.20484937    -0.04300
Br1133     Br  0.74781725  0.18097722  0.36819339     0.00200
Br1134     Br  0.79957019  0.24376875  0.23828896    -0.03600
Br1135     Br  0.74232940  0.27205554  0.30558846    -0.04400
Br1136     Br  0.72718512  0.22695218  0.14146198    -0.00500
C1137       C  0.48777844  0.39630550  0.85382926     0.01000
C1138       C  0.48067136  0.38859098  0.88820093     0.03800
C1139       C  0.49752427  0.38037781  0.91299949    -0.12300
C1140       C  0.52156664  0.38057247  0.90373880     0.23100
C1141       C  0.52881720  0.39045040  0.87076249    -0.12900
C1142       C  0.51193332  0.39790973  0.84556628     0.04500
C1143       C  0.53916957  0.36950446  0.92787306     0.26900
C1144       C  0.54889959  0.38243177  0.95633162    -0.13500
C1145       C  0.56511433  0.37178777  0.97980994     0.05000
C1146       C  0.57353290  0.34871099  0.97297240    -0.09500
C1147       C  0.56373081  0.33580049  0.94395732     0.05800
C1148       C  0.54620245  0.34604792  0.92213005    -0.13900
Br1149     Br  0.56189204  0.39276791  0.85968070    -0.05900
Br1150     Br  0.44778441  0.38867173  0.90057147    -0.00300
Br1151     Br  0.57370959  0.38855442  0.02298294     0.00100
Br1152     Br  0.53184159  0.32814940  0.88381336    -0.04300
Br1153     Br  0.52189407  0.40864453  0.79866303     0.00200
Br1154     Br  0.48772156  0.36768144  0.95882451    -0.03600
Br1155     Br  0.54028638  0.41504403  0.96247356    -0.04400
Br1156     Br  0.57452634  0.30447865  0.93242744    -0.00500
C1157       C  0.64306049  0.37340446  0.21518000     0.01000
C1158       C  0.66058490  0.39074720  0.22221484     0.03800
C1159       C  0.65483747  0.41174291  0.24062368    -0.12300
C1160       C  0.63163256  0.41623044  0.25150315     0.23100
C1161       C  0.61468941  0.39846669  0.24814640    -0.12900
C1162       C  0.62051487  0.37684033  0.23164092     0.04500
C1163       C  0.62489238  0.44004606  0.26491372     0.26900
C1164       C  0.62233059  0.44444565  0.30207586    -0.13500
C1165       C  0.61429178  0.46657674  0.31420002     0.05000
C1166       C  0.61041246  0.48509197  0.28923853    -0.09500
C1167       C  0.61548439  0.48114188  0.25234094     0.05800
C1168       C  0.62139457  0.45847856  0.24010957    -0.13900
Br1169     Br  0.58310394  0.40429800  0.26538033    -0.05900
Br1170     Br  0.69283473  0.38698877  0.20798242    -0.00300
Br1171     Br  0.60743808  0.47049997  0.36479987     0.00100
Br1172     Br  0.62416274  0.45246757  0.18904111    -0.04300
Br1173     Br  0.59736742  0.35200878  0.23470218     0.00200
Br1174     Br  0.67863506  0.43507394  0.25076850    -0.03600
Br1175     Br  0.62985804  0.41996941  0.33624492    -0.04400
Br1176     Br  0.61655171  0.50695722  0.21853289    -0.00500
C1177       C  0.47251051  0.45283028  0.58084125     0.01000
C1178       C  0.49083137  0.44161084  0.56129236     0.03800
C1179       C  0.50508039  0.45447982  0.53741949    -0.12300
C1180       C  0.50025047  0.47830550  0.53056736     0.23100
C1181       C  0.48096702  0.48921590  0.54781281    -0.12900
C1182       C  0.46714819  0.47659268  0.57298430     0.04500
C1183       C  0.51430957  0.49107200  0.50280133     0.26900
C1184       C  0.53392335  0.50484692  0.51257265    -0.13500
C1185       C  0.54687945  0.51695759  0.48585477     0.05000
C1186       C  0.54069726  0.51474337  0.44921679    -0.09500
C1187       C  0.52202325  0.49976662  0.43944479     0.05800
C1188       C  0.50849749  0.48852120  0.46611909    -0.13900
Br1189     Br  0.47390121  0.52166737  0.53724108    -0.05900
Br1190     Br  0.49573738  0.40805294  0.56502451    -0.00300
Br1191     Br  0.57213839  0.53767863  0.49944634     0.00100
Br1192     Br  0.48123608  0.47042199  0.45259077    -0.04300
Br1193     Br  0.44137649  0.49222093  0.59690135     0.00200
Br1194     Br  0.53170758  0.43958071  0.51440686    -0.03600
Br1195     Br  0.54248667  0.50763624  0.56262331    -0.04400
Br1196     Br  0.51506642  0.49459529  0.38917267    -0.00500
C1197       C  0.45412145  0.18790307  0.11313813     0.01000
C1198       C  0.45545000  0.20724038  0.13681907     0.03800
C1199       C  0.47507681  0.22222583  0.13576601    -0.12300
C1200       C  0.49359483  0.21771979  0.11145701     0.23100
C1201       C  0.49321752  0.19721314  0.09012763    -0.12900
C1202       C  0.47340829  0.18241227  0.09079175     0.04500
C1203       C  0.51289983  0.23508970  0.10738506     0.26900
C1204       C  0.51257193  0.25131821  0.07862366    -0.13500
C1205       C  0.53094832  0.26771362  0.07457149     0.05000
C1206       C  0.54939266  0.26855597  0.10011183    -0.09500
C1207       C  0.54909083  0.25271988  0.12971065     0.05800
C1208       C  0.53120522  0.23576887  0.13275647    -0.13900
Br1209     Br  0.51941329  0.19004405  0.05894770    -0.05900
Br1210     Br  0.42942923  0.21458966  0.16833616    -0.00300
Br1211     Br  0.53053348  0.28914124  0.03410659     0.00100
Br1212     Br  0.53215616  0.21261565  0.17090780    -0.04300
Br1213     Br  0.47216668  0.15497632  0.06031624     0.00200
Br1214     Br  0.47593469  0.24986988  0.16588273    -0.03600
Br1215     Br  0.48687053  0.25087643  0.04465852    -0.04400
Br1216     Br  0.57381080  0.25267099  0.16534931    -0.00500
C1217       C  0.35724571  0.22669943  0.94835045     0.01000
C1218       C  0.35184553  0.25042482  0.95569917     0.03800
C1219       C  0.35735244  0.26800870  0.93032490    -0.12300
C1220       C  0.36811010  0.26193182  0.89732540     0.23100
C1221       C  0.37308530  0.23813480  0.88970697    -0.12900
C1222       C  0.36776107  0.22058234  0.91525123     0.04500
C1223       C  0.37558220  0.28071571  0.87181063     0.26900
C1224       C  0.36235728  0.28561955  0.84059711    -0.13500
C1225       C  0.36982911  0.30319226  0.81630879     0.05000
C1226       C  0.38964683  0.31722088  0.82441166    -0.09500
C1227       C  0.40273262  0.31227632  0.85603577     0.05800
C1228       C  0.39617139  0.29359938  0.87882197    -0.13900
Br1229     Br  0.38827611  0.22975326  0.84499667    -0.05900
Br1230     Br  0.33853936  0.25904521  0.00173735    -0.00300
Br1231     Br  0.35423051  0.30608875  0.77040093     0.00100
Br1232     Br  0.41581370  0.28504297  0.91927256    -0.04300
Br1233     Br  0.37523289  0.18812899  0.90532075     0.00200
Br1234     Br  0.35128241  0.30060947  0.94148632    -0.03600
Br1235     Br  0.33416181  0.26790619  0.83094613    -0.04400
Br1236     Br  0.42939444  0.33128172  0.86939674    -0.00500
C1237       C  0.05771129  0.26491316  0.42512903     0.01000
C1238       C  0.05796493  0.24863387  0.39633833     0.03800
C1239       C  0.03895165  0.23305296  0.39135484    -0.12300
C1240       C  0.01997475  0.23306638  0.41577869     0.23100
C1241       C  0.01971091  0.24918527  0.44457650    -0.12900
C1242       C  0.03824883  0.26529176  0.44889257     0.04500
C1243       C  0.99995735  0.21646848  0.41157652     0.26900
C1244       C  0.98014571  0.22324704  0.39127922    -0.13500
C1245       C  0.95918925  0.21018759  0.39361478     0.05000
C1246       C  0.95793153  0.19040120  0.41650540    -0.09500
C1247       C  0.97834793  0.18243267  0.43425297     0.05800
C1248       C  0.99938942  0.19538033  0.43162122    -0.13900
Br1249     Br  0.99400459  0.24874004  0.47870113    -0.05900
Br1250     Br  0.08517182  0.24612070  0.36548955    -0.00300
Br1251     Br  0.93169868  0.22053745  0.36763143     0.00100
Br1252     Br  0.02717375  0.18497742  0.45677656    -0.04300
Br1253     Br  0.03655641  0.28813995  0.48719952     0.00200
Br1254     Br  0.03904231  0.21119490  0.35168803    -0.03600
Br1255     Br  0.98139490  0.25130636  0.36207498    -0.04400
Br1256     Br  0.97721927  0.15400312  0.46261172    -0.00500
C1257       C  0.25781981  0.34565286  0.49178805     0.01000
C1258       C  0.27520903  0.32996179  0.50474191     0.03800
C1259       C  0.29645394  0.33858248  0.51916938    -0.12300
C1260       C  0.30103643  0.36293982  0.51957837     0.23100
C1261       C  0.28456113  0.37851275  0.50402510    -0.12900
C1262       C  0.26284923  0.37000208  0.49086611     0.04500
C1263       C  0.32150944  0.37210589  0.54065128     0.26900
C1264       C  0.31798079  0.37955155  0.57652339    -0.13500
C1265       C  0.33732892  0.38514543  0.59859598     0.05000
C1266       C  0.36045451  0.38361074  0.58496502    -0.09500
C1267       C  0.36395221  0.37749412  0.54849301     0.05800
C1268       C  0.34455207  0.37172912  0.52639428    -0.13900
Br1269     Br  0.29137014  0.41170871  0.50272645    -0.05900
Br1270     Br  0.27002794  0.29646536  0.50277032    -0.00300
Br1271     Br  0.33210552  0.39339425  0.64837153     0.00100
Br1272     Br  0.34946741  0.36298606  0.47679416    -0.04300
Br1273     Br  0.23918193  0.39208014  0.47522782     0.00200
Br1274     Br  0.31872617  0.31708634  0.54066799    -0.03600
Br1275     Br  0.28649924  0.38119396  0.59593460    -0.04400
Br1276     Br  0.39535496  0.37740705  0.52886003    -0.00500
C1277       C  0.22529927  0.27698530  0.33890867     0.01000
C1278       C  0.21373718  0.26904859  0.30767500     0.03800
C1279       C  0.22537383  0.25418051  0.28328982    -0.12300
C1280       C  0.24929850  0.24858895  0.28842286     0.23100
C1281       C  0.26141066  0.25785646  0.31843094    -0.12900
C1282       C  0.24920949  0.27147105  0.34422301     0.04500
C1283       C  0.26177991  0.23462759  0.26037741     0.26900
C1284       C  0.26696159  0.21054701  0.26554909    -0.13500
C1285       C  0.27779495  0.19739438  0.23775427     0.05000
C1286       C  0.28282152  0.20817302  0.20427323    -0.09500
C1287       C  0.27597035  0.23187866  0.19863207     0.05800
C1288       C  0.26656231  0.24523744  0.22693822    -0.13900
Br1289     Br  0.29456480  0.25183248  0.32416070    -0.05900
Br1290     Br  0.18166659  0.27846983  0.29855382    -0.00300
Br1291     Br  0.28631958  0.16500819  0.24628272     0.00100
Br1292     Br  0.26038520  0.27841740  0.22004012    -0.04300
Br1293     Br  0.26477028  0.28175438  0.38754043     0.00200
Br1294     Br  0.20828859  0.24087203  0.24323978    -0.03600
Br1295     Br  0.25932213  0.19570588  0.31081778    -0.04400
Br1296     Br  0.27798492  0.24610655  0.15141052    -0.00500
C1297       C  0.07218317  0.34541834  0.56540742     0.01000
C1298       C  0.07584311  0.34557392  0.60287081     0.03800
C1299       C  0.05666309  0.34829051  0.62642197    -0.12300
C1300       C  0.03414497  0.35349384  0.61261329     0.23100
C1301       C  0.03073663  0.35473447  0.57498424    -0.12900
C1302       C  0.04965879  0.35020690  0.55140017     0.04500
C1303       C  0.01471846  0.35952160  0.63788821     0.26900
C1304       C  0.99753505  0.34277411  0.64698148    -0.13500
C1305       C  0.98036825  0.34805470  0.67322913     0.05000
C1306       C  0.98047697  0.37014213  0.69112974    -0.09500
C1307       C  0.99692159  0.38739810  0.68004028     0.05800
C1308       C  0.01407210  0.38194842  0.65388599    -0.13900
Br1309     Br  0.00024710  0.36284281  0.55592099    -0.05900
Br1310     Br  0.10739349  0.34383022  0.62169475    -0.00300
Br1311     Br  0.95631373  0.32496199  0.68338435     0.00100
Br1312     Br  0.03762836  0.40491396  0.64089517    -0.04300
Br1313     Br  0.04510605  0.35157162  0.49994754     0.00200
Br1314     Br  0.06109378  0.34431245  0.67760311    -0.03600
Br1315     Br  0.99820301  0.31221854  0.62433893    -0.04400
Br1316     Br  0.99729743  0.41830345  0.70132031    -0.00500
C1317       C  0.14777569  0.38255719  0.33342477     0.01000
C1318       C  0.14319512  0.40522314  0.34714795     0.03800
C1319       C  0.13677406  0.42368100  0.32375251    -0.12300
C1320       C  0.13467101  0.41963259  0.28639023     0.23100
C1321       C  0.13991265  0.39714274  0.27246312    -0.12900
C1322       C  0.14652012  0.37868291  0.29593722     0.04500
C1323       C  0.12645569  0.43917397  0.26251911     0.26900
C1324       C  0.10222734  0.44237114  0.25610341    -0.13500
C1325       C  0.09396688  0.46340914  0.24034606     0.05000
C1326       C  0.10981942  0.48153584  0.23121723    -0.09500
C1327       C  0.13424311  0.47740572  0.23459611     0.05800
C1328       C  0.14249912  0.45623375  0.25011064    -0.13900
Br1329     Br  0.13758015  0.39162112  0.22138619    -0.05900
Br1330     Br  0.14456329  0.41080038  0.39828714    -0.00300
Br1331     Br  0.06082815  0.46750353  0.23117326     0.00100
Br1332     Br  0.17575208  0.45090843  0.25633514    -0.04300
Br1333     Br  0.15399078  0.34800641  0.27700400     0.00200
Br1334     Br  0.13016296  0.45454776  0.34297259    -0.03600
Br1335     Br  0.08028920  0.41833206  0.27058497    -0.04400
Br1336     Br  0.15640618  0.50135162  0.22061810    -0.00500
C1337       C  0.14895065  0.59014592  0.07781393     0.01000
C1338       C  0.14569687  0.59657649  0.04141252     0.03800
C1339       C  0.16510628  0.60318853  0.01999264    -0.12300
C1340       C  0.18792768  0.60325458  0.03480125     0.23100
C1341       C  0.19137812  0.59543578  0.07048653    -0.12900
C1342       C  0.17197591  0.58895722  0.09193741     0.04500
C1343       C  0.20814615  0.61311830  0.01417837     0.26900
C1344       C  0.22486117  0.59807868  0.99809446    -0.13500
C1345       C  0.24573251  0.60740166  0.98332989     0.05000
C1346       C  0.24967642  0.63193940  0.98368825    -0.09500
C1347       C  0.23225742  0.64702432  0.99788132     0.05800
C1348       C  0.21176804  0.63763942  0.01356799    -0.13900
Br1349     Br  0.22272419  0.59480129  0.09052551    -0.05900
Br1350     Br  0.11454394  0.59615878  0.02095196    -0.00300
Br1351     Br  0.26974600  0.58626488  0.96583578     0.00100
Br1352     Br  0.18924479  0.65833424  0.03621887    -0.04300
Br1353     Br  0.17701705  0.58015822  0.14144860     0.00200
Br1354     Br  0.16045953  0.61289648  0.97070304    -0.03600
Br1355     Br  0.21959069  0.56457446  0.99815179    -0.04400
Br1356     Br  0.23642410  0.68068090  0.99577048    -0.00500
C1357       C  0.42784620  0.62575434  0.05911318     0.01000
C1358       C  0.44862435  0.63889444  0.06643857     0.03800
C1359       C  0.46423922  0.63166532  0.09385675    -0.12300
C1360       C  0.45969571  0.61118709  0.11392097     0.23100
C1361       C  0.43943663  0.59793188  0.10678024    -0.12900
C1362       C  0.42331007  0.60535392  0.08025287     0.04500
C1363       C  0.47599440  0.60391357  0.14324725     0.26900
C1364       C  0.49690775  0.59169228  0.13499801    -0.13500
C1365       C  0.51318549  0.58637058  0.16242065     0.05000
C1366       C  0.50808926  0.59228285  0.19848063    -0.09500
C1367       C  0.48656913  0.60346260  0.20694235     0.05800
C1368       C  0.47080139  0.60968248  0.17932709    -0.13900
Br1369     Br  0.43386464  0.56945839  0.13393951    -0.05900
Br1370     Br  0.45668399  0.66684453  0.03953579    -0.00300
Br1371     Br  0.54327281  0.57289519  0.15004679     0.00100
Br1372     Br  0.44238430  0.62676848  0.19072096    -0.04300
Br1373     Br  0.39417270  0.58817578  0.07625876     0.00200
Br1374     Br  0.49205778  0.64989361  0.10451868    -0.03600
Br1375     Br  0.50337496  0.58271496  0.08587075    -0.04400
Br1376     Br  0.47847369  0.61002691  0.25652808    -0.00500
C1377       C  0.39688168  0.49748923  0.72713413     0.01000
C1378       C  0.41101892  0.51748711  0.73267435     0.03800
C1379       C  0.40072128  0.53881786  0.74399803    -0.12300
C1380       C  0.37616865  0.54031024  0.74923443     0.23100
C1381       C  0.36188138  0.52087680  0.74070037    -0.12900
C1382       C  0.37220794  0.49943954  0.73016680     0.04500
C1383       C  0.36598863  0.56028834  0.76997816     0.26900
C1384       C  0.36056409  0.55684318  0.80671361    -0.13500
C1385       C  0.35174166  0.57547782  0.82748762     0.05000
C1386       C  0.35018934  0.59823564  0.81266819    -0.09500
C1387       C  0.35540973  0.60178363  0.77584804     0.05800
C1388       C  0.36248660  0.58262308  0.75418306    -0.13900
Br1389     Br  0.32822294  0.52312472  0.74678043    -0.05900
Br1390     Br  0.44454705  0.51541400  0.72553020    -0.00300
Br1391     Br  0.34371762  0.57008337  0.87741018     0.00100
Br1392     Br  0.36807721  0.58700419  0.70335624    -0.04300
Br1393     Br  0.35259640  0.47209899  0.72381849     0.00200
Br1394     Br  0.42043981  0.56537952  0.75525340    -0.03600
Br1395     Br  0.36713448  0.52698770  0.82961712    -0.04400
Br1396     Br  0.35347226  0.63297178  0.75559781    -0.00500
C1397       C  0.14355838  0.75326116  0.44121289     0.01000
C1398       C  0.14709496  0.75884109  0.40457594     0.03800
C1399       C  0.14219537  0.74197591  0.37776895    -0.12300
C1400       C  0.13442885  0.71932045  0.38762125     0.23100
C1401       C  0.13178320  0.71348505  0.42427939    -0.12900
C1402       C  0.13598144  0.73048176  0.45093621     0.04500
C1403       C  0.12747081  0.70200433  0.35962819     0.26900
C1404       C  0.10374120  0.69991243  0.35005696    -0.13500
C1405       C  0.09642816  0.68232435  0.32580884     0.05000
C1406       C  0.11327086  0.66672009  0.30958682    -0.09500
C1407       C  0.13755783  0.67005214  0.31840654     0.05800
C1408       C  0.14429849  0.68717740  0.34388223    -0.13900
Br1409     Br  0.12162977  0.68230419  0.43778976    -0.05900
Br1410     Br  0.15719402  0.78994601  0.39106295    -0.00300
Br1411     Br  0.06285363  0.68083929  0.31694326     0.00100
Br1412     Br  0.17680775  0.69031727  0.35831077    -0.04300
Br1413     Br  0.13098342  0.72251809  0.50095214     0.00200
Br1414     Br  0.14485334  0.75011627  0.32746000    -0.03600
Br1415     Br  0.08116454  0.72144357  0.37122026    -0.04400
Br1416     Br  0.16279614  0.65220700  0.29631430    -0.00500
C1417       C  0.27453873  0.70666680  0.83700242     0.01000
C1418       C  0.26109210  0.72620773  0.84863329     0.03800
C1419       C  0.24803102  0.73961912  0.82374148    -0.12300
C1420       C  0.24752944  0.73318181  0.78713192     0.23100
C1421       C  0.25946950  0.71268196  0.77584264    -0.12900
C1422       C  0.27320778  0.69962622  0.80055234     0.04500
C1423       C  0.23422504  0.74788638  0.76070806     0.26900
C1424       C  0.20970345  0.74546049  0.75769437    -0.13500
C1425       C  0.19700751  0.75981812  0.73364969     0.05000
C1426       C  0.20893703  0.77475978  0.70916529    -0.09500
C1427       C  0.23355903  0.77734195  0.71243466     0.05800
C1428       C  0.24594443  0.76468535  0.73920469    -0.13900
Br1429     Br  0.25711879  0.70276525  0.72629300    -0.05900
Br1430     Br  0.25999991  0.73440015  0.89905513    -0.00300
Br1431     Br  0.16312585  0.75992567  0.73605558     0.00100
Br1432     Br  0.27904746  0.77014009  0.74640799    -0.04300
Br1433     Br  0.29135742  0.67311198  0.78378530     0.00200
Br1434     Br  0.23122081  0.76728846  0.83954704    -0.03600
Br1435     Br  0.19363961  0.72171920  0.78556648    -0.04400
Br1436     Br  0.25077554  0.79664722  0.67875745    -0.00500
C1437       C  0.96911906  0.79172394  0.18451587     0.01000
C1438       C  0.99130851  0.79342806  0.16773292     0.03800
C1439       C  0.00585482  0.77343935  0.16461716    -0.12300
C1440       C  0.99848906  0.75170199  0.17898275     0.23100
C1441       C  0.97643070  0.75011340  0.19633478    -0.12900
C1442       C  0.96161131  0.76997073  0.19846439     0.04500
C1443       C  0.01386239  0.73050671  0.17604355     0.26900
C1444       C  0.00912402  0.71315664  0.14989718    -0.13500
C1445       C  0.02202316  0.69191579  0.14962002     0.05000
C1446       C  0.04039096  0.68834200  0.17461636    -0.09500
C1447       C  0.04641497  0.70663475  0.19855070     0.05800
C1448       C  0.03282601  0.72733539  0.19999538    -0.13900
Br1449     Br  0.96700901  0.72094827  0.21859211    -0.05900
Br1450     Br  0.00198179  0.82329792  0.14963389    -0.00300
Br1451     Br  0.01338797  0.66725609  0.11664286     0.00100
Br1452     Br  0.03961180  0.75094677  0.23579760    -0.04300
Br1453     Br  0.93099851  0.76755643  0.22059414     0.00200
Br1454     Br  0.03610014  0.77586930  0.14129627    -0.03600
Br1455     Br  0.98451840  0.71843317  0.11503574    -0.04400
Br1456     Br  0.07388645  0.70355575  0.22863601    -0.00500
C1457       C  0.89046692  0.99339125  0.22299802     0.01000
C1458       C  0.90483873  0.01242719  0.23322286     0.03800
C1459       C  0.89475141  0.03272963  0.24831904    -0.12300
C1460       C  0.87028989  0.03394882  0.25399099     0.23100
C1461       C  0.85571866  0.01560419  0.24192246    -0.12900
C1462       C  0.86575506  0.99537876  0.22619983     0.04500
C1463       C  0.86078644  0.05273701  0.27756800     0.26900
C1464       C  0.85971905  0.04868188  0.31502387    -0.13500
C1465       C  0.85560077  0.06748253  0.33865652     0.05000
C1466       C  0.85184198  0.09024890  0.32492261    -0.09500
C1467       C  0.85108483  0.09403732  0.28743424     0.05800
C1468       C  0.85578685  0.07528982  0.26368281    -0.13900
Br1469     Br  0.82224389  0.01748944  0.24995022    -0.05900
Br1470     Br  0.93855828  0.01025130  0.22829927    -0.00300
Br1471     Br  0.85709715  0.06243205  0.39002830     0.00100
Br1472     Br  0.85677897  0.08062071  0.21240962    -0.04300
Br1473     Br  0.84569961  0.96944396  0.21305810     0.00200
Br1474     Br  0.91462331  0.05823682  0.26399782    -0.03600
Br1475     Br  0.86545884  0.01757976  0.33410067    -0.04400
Br1476     Br  0.84433120  0.12503501  0.26901780    -0.00500
C1477       C  0.98451720  0.89499480  0.34701236     0.01000
C1478       C  0.98335216  0.87664957  0.37278452     0.03800
C1479       C  0.00117448  0.87370679  0.39856474    -0.12300
C1480       C  0.02052026  0.88900019  0.39913460     0.23100
C1481       C  0.02100533  0.90849323  0.37563735    -0.12900
C1482       C  0.00318683  0.91141082  0.34934458     0.04500
C1483       C  0.04108973  0.88250890  0.42192509     0.26900
C1484       C  0.04174347  0.88889599  0.45857717    -0.13500
C1485       C  0.05775872  0.87780784  0.48214533     0.05000
C1486       C  0.07375457  0.86082786  0.46890280    -0.09500
C1487       C  0.07386590  0.85534106  0.43186950     0.05800
C1488       C  0.05763960  0.86620623  0.40846798    -0.13900
Br1489     Br  0.04653362  0.93060449  0.37900788    -0.05900
Br1490     Br  0.95767758  0.85476743  0.37286029    -0.00300
Br1491     Br  0.05655568  0.88455657  0.53308299     0.00100
Br1492     Br  0.05766165  0.85849168  0.35783790    -0.04300
Br1493     Br  0.00596115  0.93649802  0.31461966     0.00200
Br1494     Br  0.99976364  0.84781259  0.43240221    -0.03600
Br1495     Br  0.02037947  0.91257284  0.47630991    -0.04400
Br1496     Br  0.09637498  0.83303702  0.41312034    -0.00500
C1497       C  0.03846304  0.18661269  0.86300539     0.01000
C1498       C  0.02185676  0.18608812  0.89144051     0.03800
C1499       C  0.00652905  0.20523926  0.89696513    -0.12300
C1500       C  0.00677232  0.22445925  0.87306140     0.23100
C1501       C  0.02325385  0.22506315  0.84464665    -0.12900
C1502       C  0.03913737  0.20628609  0.83973512     0.04500
C1503       C  0.98916149  0.24367904  0.87683458     0.26900
C1504       C  0.96656049  0.24130335  0.86160985    -0.13500
C1505       C  0.95079776  0.26045135  0.86192843     0.05000
C1506       C  0.95794955  0.28226671  0.87593015    -0.09500
C1507       C  0.97985609  0.28408295  0.89353991     0.05800
C1508       C  0.99527179  0.26469861  0.89445554    -0.13900
Br1509     Br  0.02356141  0.25143306  0.81182912    -0.05900
Br1510     Br  0.01789626  0.15810526  0.92030683    -0.00300
Br1511     Br  0.91920066  0.25686255  0.84421892     0.00100
Br1512     Br  0.02514760  0.26705562  0.91872170    -0.04300
Br1513     Br  0.06155833  0.20744742  0.80065012     0.00200
Br1514     Br  0.98469939  0.20507831  0.93682726    -0.03600
Br1515     Br  0.95765212  0.21217430  0.83892095    -0.04400
Br1516     Br  0.98945262  0.31353367  0.91456615    -0.00500
C1517       C  0.01930787  0.09084154  0.69252886     0.01000
C1518       C  0.02281673  0.10679827  0.66390127     0.03800
C1519       C  0.00448414  0.11160022  0.63946495    -0.12300
C1520       C  0.98282743  0.09971861  0.64249667     0.23100
C1521       C  0.97969634  0.08288925  0.67004415    -0.12900
C1522       C  0.99775628  0.07869574  0.69529782     0.04500
C1523       C  0.96334109  0.10540762  0.61704057     0.26900
C1524       C  0.94546861  0.12132289  0.62720429    -0.13500
C1525       C  0.92806062  0.12804057  0.60218690     0.05000
C1526       C  0.92895397  0.11968966  0.56643903    -0.09500
C1527       C  0.94636807  0.10317636  0.55661624     0.05800
C1528       C  0.96328097  0.09579578  0.58202104    -0.13900
Br1529     Br  0.95030254  0.06622920  0.67385467    -0.05900
Br1530     Br  0.05294362  0.12185298  0.65792012    -0.00300
Br1531     Br  0.90227311  0.14778205  0.61728541     0.00100
Br1532     Br  0.98653496  0.07257011  0.56898854    -0.04300
Br1533     Br  0.99221577  0.05767245  0.73527495     0.00200
Br1534     Br  0.00857049  0.13538842  0.60285585    -0.03600
Br1535     Br  0.94514067  0.13429261  0.67522817    -0.04400
Br1536     Br  0.94769110  0.09136964  0.50795120    -0.00500
C1537       C  0.14793599  0.88284670  0.70952000     0.01000
C1538       C  0.14595389  0.90593611  0.69577306     0.03800
C1539       C  0.13928793  0.92447437  0.71859218    -0.12300
C1540       C  0.13565167  0.92029658  0.75559199     0.23100
C1541       C  0.13956120  0.89765729  0.76993277    -0.12900
C1542       C  0.14528501  0.87884102  0.74676106     0.04500
C1543       C  0.12630003  0.93967875  0.77825032     0.26900
C1544       C  0.14175724  0.95600749  0.79397178    -0.13500
C1545       C  0.13298701  0.97729199  0.80807537     0.05000
C1546       C  0.10867243  0.98235776  0.80612134    -0.09500
C1547       C  0.09306979  0.96504949  0.79314095     0.05800
C1548       C  0.10188225  0.94381093  0.77913828    -0.13900
Br1549     Br  0.13642566  0.89245802  0.82100187    -0.05900
Br1550     Br  0.15135526  0.91233584  0.64540509    -0.00300
Br1551     Br  0.15470065  0.00024921  0.82681227     0.00100
Br1552     Br  0.08069992  0.92100866  0.75856169    -0.04300
Br1553     Br  0.14928380  0.84749864  0.76560561     0.00200
Br1554     Br  0.13376157  0.95549558  0.69887064    -0.03600
Br1555     Br  0.17512420  0.94988967  0.79335357    -0.04400
Br1556     Br  0.05956800  0.97041892  0.79423493    -0.00500
C1557       C  0.03313017  0.01360425  0.94298363     0.01000
C1558       C  0.01358173  0.00035037  0.93108144     0.03800
C1559       C  0.99953263  0.98797863  0.95595294    -0.12300
C1560       C  0.00505682  0.98831832  0.99293997     0.23100
C1561       C  0.02530823  0.00041017  0.00467990    -0.12900
C1562       C  0.03944453  0.01283652  0.97977389     0.04500
C1563       C  0.99028674  0.97484818  0.01910831     0.26900
C1564       C  0.97255411  0.98611501  0.03944587    -0.13500
C1565       C  0.95969687  0.97346037  0.06576198     0.05000
C1566       C  0.96387230  0.94915150  0.07086969    -0.09500
C1567       C  0.98013657  0.93761253  0.04787425     0.05800
C1568       C  0.99381648  0.95050823  0.02316720    -0.13900
Br1569     Br  0.03329868  0.00032841  0.05517464    -0.05900
Br1570     Br  0.00643370  0.99832185  0.88028112    -0.00300
Br1571     Br  0.93751106  0.98990421  0.09599624     0.00100
Br1572     Br  0.01802655  0.93495592  0.99539478    -0.04300
Br1573     Br  0.06689364  0.02943741  0.99647838     0.00200
Br1574     Br  0.97235186  0.97079492  0.93950824    -0.03600
Br1575     Br  0.96626354  0.01903461  0.03144787    -0.04400
Br1576     Br  0.98305612  0.90380703  0.04861862    -0.00500
C1577       C  0.12407263  0.16508051  0.72982406     0.01000
C1578       C  0.12943531  0.18712535  0.74502255     0.03800
C1579       C  0.13618519  0.20599721  0.72263595    -0.12300
C1580       C  0.13746272  0.20287813  0.68496198     0.23100
C1581       C  0.13297359  0.18051906  0.67000911    -0.12900
C1582       C  0.12657343  0.16161878  0.69247773     0.04500
C1583       C  0.14256868  0.22316871  0.66077693     0.26900
C1584       C  0.12456522  0.23918843  0.65201854    -0.13500
C1585       C  0.12856720  0.25696850  0.62634201     0.05000
C1586       C  0.15029361  0.25818859  0.60763855    -0.09500
C1587       C  0.16889002  0.24311949  0.61850212     0.05800
C1588       C  0.16500953  0.22584973  0.64522792    -0.13900
Br1589     Br  0.13477506  0.17597179  0.61854680    -0.05900
Br1590     Br  0.12772258  0.19128406  0.79653547    -0.00300
Br1591     Br  0.10416950  0.28002357  0.61792219     0.00100
Br1592     Br  0.19017403  0.20513371  0.65995803    -0.04300
Br1593     Br  0.12097300  0.13091356  0.67223731     0.00200
Br1594     Br  0.14333703  0.23624397  0.74331944    -0.03600
Br1595     Br  0.09394990  0.23608345  0.67412989    -0.04400
Br1596     Br  0.19940958  0.24470707  0.59598760    -0.00500
C1597       C  0.14419632  0.08774146  0.96562438     0.01000
C1598       C  0.16693360  0.08695103  0.95020116     0.03800
C1599       C  0.18651381  0.09468193  0.96994256    -0.12300
C1600       C  0.18380412  0.10189367  0.00596620     0.23100
C1601       C  0.16167998  0.09970496  0.02287170    -0.12900
C1602       C  0.14175583  0.09321620  0.00246720     0.04500
C1603       C  0.20410987  0.11279368  0.02493781     0.26900
C1604       C  0.22140473  0.09857720  0.04116987    -0.13500
C1605       C  0.24250049  0.10864162  0.05377483     0.05000
C1606       C  0.24611055  0.13323881  0.05132861    -0.09500
C1607       C  0.22785667  0.14759784  0.03763606     0.05800
C1608       C  0.20730863  0.13734805  0.02342823    -0.13900
Br1609     Br  0.15892637  0.10551692  0.07381583    -0.05900
Br1610     Br  0.17162236  0.07588863  0.90165277    -0.00300
Br1611     Br  0.26696106  0.08820241  0.07179308     0.00100
Br1612     Br  0.18404763  0.15676847  0.99986192    -0.04300
Br1613     Br  0.11124445  0.09130090  0.02478812     0.00200
Br1614     Br  0.21704675  0.09636021  0.94717563    -0.03600
Br1615     Br  0.21648400  0.06507844  0.04431658    -0.04400
Br1616     Br  0.23036860  0.18138298  0.03988725    -0.00500
C1617       C  0.95566172  0.69353127  0.60598338     0.01000
C1618       C  0.95522007  0.71101785  0.63306890     0.03800
C1619       C  0.97311400  0.72814082  0.63466769    -0.12300
C1620       C  0.99151270  0.72804505  0.60920954     0.23100
C1621       C  0.99236016  0.71023373  0.58280539    -0.12900
C1622       C  0.97460775  0.69298618  0.58133033     0.04500
C1623       C  0.01019237  0.74643358  0.61051124     0.26900
C1624       C  0.00705269  0.76831923  0.59309830    -0.13500
C1625       C  0.02557583  0.78484349  0.59216283     0.05000
C1626       C  0.04719846  0.77969536  0.60899238    -0.09500
C1627       C  0.04952041  0.75861178  0.62887613     0.05800
C1628       C  0.03128187  0.74190092  0.62909513    -0.13900
Br1629     Br  0.01730103  0.71020968  0.54751793    -0.05900
Br1630     Br  0.92900050  0.71311690  0.66598479    -0.00300
Br1631     Br  0.02136437  0.81475404  0.56854338     0.00100
Br1632     Br  0.03545174  0.71224981  0.65369639    -0.04300
Br1633     Br  0.97587684  0.66879730  0.54484979     0.00200
Br1634     Br  0.97189983  0.75263942  0.67056200    -0.03600
Br1635     Br  0.97757601  0.77528509  0.56977756    -0.04400
Br1636     Br  0.07801805  0.75201623  0.65496710    -0.00500
C1637       C  0.75257436  0.62761593  0.53892657     0.01000
C1638       C  0.73576765  0.64269290  0.52282914     0.03800
C1639       C  0.71535043  0.63338890  0.50735072    -0.12300
C1640       C  0.71122201  0.60906654  0.50868616     0.23100
C1641       C  0.72732605  0.59398806  0.52587372    -0.12900
C1642       C  0.74808590  0.60318505  0.54086856     0.04500
C1643       C  0.69046241  0.59942359  0.49012534     0.26900
C1644       C  0.66833377  0.59983219  0.50715280    -0.13500
C1645       C  0.64809088  0.59383944  0.48757297     0.05000
C1646       C  0.65014347  0.58646973  0.45148965    -0.09500
C1647       C  0.67251987  0.58482935  0.43513373     0.05800
C1648       C  0.69256487  0.59196148  0.45413457    -0.13900
Br1649     Br  0.72114958  0.56063967  0.52736338    -0.05900
Br1650     Br  0.74015184  0.67631662  0.52226392    -0.00300
Br1651     Br  0.61746161  0.59675935  0.50947772     0.00100
Br1652     Br  0.72259244  0.59382650  0.42986186    -0.04300
Br1653     Br  0.77084631  0.58189545  0.56144712     0.00200
Br1654     Br  0.69334042  0.65384074  0.48283790    -0.03600
Br1655     Br  0.66575496  0.61023494  0.55645701    -0.04400
Br1656     Br  0.67578046  0.57492905  0.38560704    -0.00500
C1657       C  0.85839249  0.72412536  0.44040462     0.01000
C1658       C  0.87704851  0.72279558  0.41535435     0.03800
C1659       C  0.88113311  0.74135836  0.39127329    -0.12300
C1660       C  0.86584089  0.76077962  0.39079010     0.23100
C1661       C  0.84610101  0.76137351  0.41363690    -0.12900
C1662       C  0.84272068  0.74343759  0.43920616     0.04500
C1663       C  0.87097378  0.78091758  0.36697374     0.26900
C1664       C  0.88310957  0.80051267  0.38065880    -0.13500
C1665       C  0.88787669  0.81971201  0.35802434     0.05000
C1666       C  0.88271550  0.81835982  0.32102539    -0.09500
C1667       C  0.86983867  0.79910552  0.30762452     0.05800
C1668       C  0.86367461  0.78053573  0.33077128    -0.13900
Br1669     Br  0.82394024  0.78700817  0.40992168    -0.05900
Br1670     Br  0.89682653  0.69538168  0.41310967    -0.00300
Br1671     Br  0.89846871  0.84887434  0.37833668     0.00100
Br1672     Br  0.84561668  0.75431781  0.31303937    -0.04300
Br1673     Br  0.81790947  0.74679040  0.47430563     0.00200
Br1674     Br  0.90802958  0.74054286  0.35946010    -0.03600
Br1675     Br  0.89381221  0.80068901  0.43001806    -0.04400
Br1676     Br  0.86064117  0.79808788  0.25764998    -0.00500
C1677       C  0.02549753  0.59043673  0.34986316     0.01000
C1678       C  0.02841697  0.60923983  0.37432507     0.03800
C1679       C  0.01039921  0.61486891  0.39889974    -0.12300
C1680       C  0.98996161  0.60097381  0.40033079     0.23100
C1681       C  0.98801872  0.58091906  0.37838447    -0.12900
C1682       C  0.00546171  0.57590250  0.35265937     0.04500
C1683       C  0.96979232  0.60793382  0.42327338     0.26900
C1684       C  0.96897337  0.60111124  0.45975069    -0.13500
C1685       C  0.94929415  0.60693342  0.48097685     0.05000
C1686       C  0.93003450  0.61877972  0.46536343    -0.09500
C1687       C  0.93024445  0.62414756  0.42833428     0.05800
C1688       C  0.95044553  0.61963012  0.40762594    -0.13900
Br1689     Br  0.96061443  0.56107976  0.38240368    -0.05900
Br1690     Br  0.05711937  0.62729056  0.37411239    -0.00300
Br1691     Br  0.94875576  0.59882544  0.53147985     0.00100
Br1692     Br  0.95165909  0.62936913  0.35777884    -0.04300
Br1693     Br  0.00022039  0.55066945  0.31891413     0.00200
Br1694     Br  0.01302767  0.64231296  0.42913869    -0.03600
Br1695     Br  0.99468626  0.58348200  0.48025917    -0.04400
Br1696     Br  0.90200413  0.63523429  0.40535665    -0.00500
C1697       C  0.85221308  0.58868186  0.70354646     0.01000
C1698       C  0.86023002  0.59063837  0.73937601     0.03800
C1699       C  0.86542814  0.57023761  0.75965301    -0.12300
C1700       C  0.86314926  0.54776917  0.74394678     0.23100
C1701       C  0.85386906  0.54576298  0.70888629    -0.12900
C1702       C  0.84805080  0.56608645  0.68897709     0.04500
C1703       C  0.87288443  0.52651264  0.76240653     0.26900
C1704       C  0.89713329  0.52163619  0.75992573    -0.13500
C1705       C  0.90656294  0.50126312  0.77604070     0.05000
C1706       C  0.89160879  0.48449897  0.79234110    -0.09500
C1707       C  0.86724559  0.48938200  0.79477358     0.05800
C1708       C  0.85805822  0.51060619  0.78068029    -0.13900
Br1709     Br  0.85096258  0.51509797  0.68705873    -0.05900
Br1710     Br  0.86426550  0.62133073  0.76040400    -0.00300
Br1711     Br  0.94022088  0.49708309  0.77725435     0.00100
Br1712     Br  0.82504055  0.51772657  0.78539237    -0.04300
Br1713     Br  0.83618852  0.56266099  0.64052147     0.00200
Br1714     Br  0.87673975  0.57293800  0.80842203    -0.03600
Br1715     Br  0.91730704  0.54237345  0.73266149    -0.04400
Br1716     Br  0.84605368  0.46639474  0.81492319    -0.00500
C1717       C  0.54711110  0.77792453  0.91739916     0.01000
C1718       C  0.52797612  0.78074421  0.94126652     0.03800
C1719       C  0.50744153  0.76751498  0.93613724    -0.12300
C1720       C  0.50618358  0.75146035  0.90736198     0.23100
C1721       C  0.52467681  0.74959607  0.88244284    -0.12900
C1722       C  0.54528852  0.76257655  0.88766083     0.04500
C1723       C  0.48687277  0.73436778  0.90589049     0.26900
C1724       C  0.48966512  0.71243430  0.92306644    -0.13500
C1725       C  0.47102497  0.69639653  0.92336014     0.05000
C1726       C  0.44965765  0.70237962  0.90671200    -0.09500
C1727       C  0.44732789  0.72374405  0.88778092     0.05800
C1728       C  0.46601038  0.73978674  0.88735526    -0.13900
Br1729     Br  0.52214810  0.72800041  0.84250177    -0.05900
Br1730     Br  0.53007971  0.80219016  0.98147212    -0.00300
Br1731     Br  0.47450460  0.66630821  0.94674442     0.00100
Br1732     Br  0.46284283  0.76950993  0.86273973    -0.04300
Br1733     Br  0.57187301  0.75693390  0.85643787     0.00200
Br1734     Br  0.48140381  0.77047392  0.96926622    -0.03600
Br1735     Br  0.51878688  0.70475061  0.94712507    -0.04400
Br1736     Br  0.41797317  0.73181420  0.86482438    -0.00500
C1737       C  0.61420510  0.66008150  0.21386310     0.01000
C1738       C  0.60627250  0.65949049  0.17794429     0.03800
C1739       C  0.61291618  0.67733638  0.15386173    -0.12300
C1740       C  0.62774242  0.69559018  0.16559282     0.23100
C1741       C  0.63584705  0.69610493  0.20139816    -0.12900
C1742       C  0.62913618  0.67830017  0.22556511     0.04500
C1743       C  0.63383485  0.71485739  0.14061950     0.26900
C1744       C  0.65378407  0.71305232  0.11836893    -0.13500
C1745       C  0.65843299  0.73057349  0.09252785     0.05000
C1746       C  0.64322610  0.75020616  0.08934006    -0.09500
C1747       C  0.62367888  0.75221844  0.11284902     0.05800
C1748       C  0.61896309  0.73451702  0.13818231    -0.13900
Br1749     Br  0.65542432  0.72171919  0.21737795    -0.05900
Br1750     Br  0.58681922  0.63385870  0.16155576    -0.00300
Br1751     Br  0.68417769  0.72596033  0.05935322     0.00100
Br1752     Br  0.59142862  0.73649562  0.16865845    -0.04300
Br1753     Br  0.63950489  0.67949436  0.27503969     0.00200
Br1754     Br  0.60119643  0.67724672  0.10506301    -0.03600
Br1755     Br  0.67395641  0.68582221  0.12228302    -0.04400
Br1756     Br  0.60271510  0.77885201  0.11040309    -0.00500
C1757       C  0.75448814  0.83469417  0.97917749     0.01000
C1758       C  0.77131854  0.81912477  0.99400105     0.03800
C1759       C  0.79100501  0.82789649  0.01281672    -0.12300
C1760       C  0.79453991  0.85236617  0.01595235     0.23100
C1761       C  0.77885599  0.86788524  0.99854135    -0.12900
C1762       C  0.75875256  0.85916723  0.98066742     0.04500
C1763       C  0.81435954  0.86181283  0.03820531     0.26900
C1764       C  0.81033029  0.86926230  0.07400444    -0.13500
C1765       C  0.82915315  0.87744700  0.09539162     0.05000
C1766       C  0.85226313  0.87775008  0.08147140    -0.09500
C1767       C  0.85606093  0.87141716  0.04517963     0.05800
C1768       C  0.83717634  0.86368152  0.02355796    -0.13900
Br1769     Br  0.78474600  0.90125072  0.00024364    -0.05900
Br1770     Br  0.76751315  0.78564317  0.98802371    -0.00300
Br1771     Br  0.82335009  0.88767513  0.14410850     0.00100
Br1772     Br  0.84240772  0.85577058  0.97369026    -0.04300
Br1773     Br  0.73623821  0.88105265  0.96089779     0.00200
Br1774     Br  0.81270868  0.80638336  0.03548363    -0.03600
Br1775     Br  0.77900546  0.86783086  0.09391018    -0.04400
Br1776     Br  0.88718533  0.87399364  0.02495794    -0.00500
C1777       C  0.71587374  0.76289972  0.82615238     0.01000
C1778       C  0.74062499  0.76488205  0.82745412     0.03800
C1779       C  0.75471780  0.75293482  0.80195554    -0.12300
C1780       C  0.74428746  0.73799036  0.77623403     0.23100
C1781       C  0.71966318  0.73592362  0.77496583    -0.12900
C1782       C  0.70550588  0.74872328  0.79915161     0.04500
C1783       C  0.75886887  0.72588600  0.74845759     0.26900
C1784       C  0.76328523  0.73727491  0.71551767    -0.13500
C1785       C  0.77526951  0.72544322  0.68772765     0.05000
C1786       C  0.78464840  0.70258386  0.69353215    -0.09500
C1787       C  0.78064805  0.69140003  0.72705201     0.05800
C1788       C  0.76717476  0.70276255  0.75394206    -0.13900
Br1789     Br  0.70537081  0.71568484  0.73944876    -0.05900
Br1790     Br  0.75541927  0.78276682  0.86529135    -0.00300
Br1791     Br  0.77759703  0.74059063  0.64120457     0.00100
Br1792     Br  0.76018410  0.68681922  0.79854875    -0.04300
Br1793     Br  0.67178683  0.74772954  0.79355780     0.00200
Br1794     Br  0.78832093  0.75731671  0.80159735    -0.03600
Br1795     Br  0.75307320  0.76943185  0.70886928    -0.04400
Br1796     Br  0.79502779  0.66138841  0.73757062    -0.00500
C1797       C  0.46781616  0.78583762  0.36359629     0.01000
C1798       C  0.45996048  0.76355924  0.35234043     0.03800
C1799       C  0.47565231  0.74434413  0.35194863    -0.12300
C1800       C  0.49905451  0.74733290  0.36362596     0.23100
C1801       C  0.50650790  0.76924628  0.37672935    -0.12900
C1802       C  0.49107818  0.78853575  0.37616287     0.04500
C1803       C  0.51606845  0.72762188  0.36174466     0.26900
C1804       C  0.51675773  0.71076773  0.38952268    -0.13500
C1805       C  0.53242155  0.69166600  0.38732717     0.05000
C1806       C  0.54762384  0.68952049  0.35738392    -0.09500
C1807       C  0.54773193  0.70710568  0.33048686     0.05800
C1808       C  0.53187520  0.72604209  0.33255217    -0.13900
Br1809     Br  0.53822704  0.77287618  0.39440093    -0.05900
Br1810     Br  0.42785426  0.75958517  0.33710262    -0.00300
Br1811     Br  0.53117744  0.66738150  0.42367060     0.00100
Br1812     Br  0.53110136  0.74933434  0.29467186    -0.04300
Br1813     Br  0.50255913  0.81898478  0.39045411     0.00200
Br1814     Br  0.46549025  0.71415759  0.33423347    -0.03600
Br1815     Br  0.49542761  0.71345930  0.42981708    -0.04400
Br1816     Br  0.56926375  0.70486535  0.29024156    -0.00500
C1817       C  0.34659857  0.09268802  0.21379074     0.01000
C1818       C  0.33943265  0.07015698  0.20196271     0.03800
C1819       C  0.34630319  0.04983038  0.22123686    -0.12300
C1820       C  0.36016664  0.05180127  0.25259066     0.23100
C1821       C  0.36524536  0.07433271  0.26634493    -0.12900
C1822       C  0.35857333  0.09466868  0.24697973     0.04500
C1823       C  0.37140798  0.03035698  0.26864904     0.26900
C1824       C  0.35885372  0.01546454  0.29208380    -0.13500
C1825       C  0.36887633  0.99403552  0.30413351     0.05000
C1826       C  0.39236088  0.98794017  0.29481120    -0.09500
C1827       C  0.40536990  0.00398506  0.27317675     0.05800
C1828       C  0.39462484  0.02441314  0.25905648    -0.13900
Br1829     Br  0.38230249  0.07719479  0.31097699    -0.05900
Br1830     Br  0.32221543  0.06663198  0.15749105    -0.00300
Br1831     Br  0.34918999  0.97252843  0.33065336     0.00100
Br1832     Br  0.41143086  0.04401065  0.22510840    -0.04300
Br1833     Br  0.36627274  0.12538948  0.26547663     0.00200
Br1834     Br  0.33817397  0.01904783  0.20336148    -0.03600
Br1835     Br  0.32755431  0.02439070  0.30684618    -0.04400
Br1836     Br  0.43842702  0.99926272  0.26389421    -0.00500
C1837       C  0.48926775  0.88094822  0.19115685     0.01000
C1838       C  0.50986078  0.89472265  0.18977452     0.03800
C1839       C  0.52701641  0.89044821  0.16307955    -0.12300
C1840       C  0.52428720  0.87165215  0.13867240     0.23100
C1841       C  0.50368453  0.85789994  0.13993701    -0.12900
C1842       C  0.48608885  0.86275768  0.16567135     0.04500
C1843       C  0.54324623  0.86599341  0.11221247     0.26900
C1844       C  0.54053313  0.87193135  0.07549361    -0.13500
C1845       C  0.55744919  0.86463259  0.05001750     0.05000
C1846       C  0.57790384  0.85279804  0.06149877    -0.09500
C1847       C  0.58185174  0.84930944  0.09853849     0.05800
C1848       C  0.56409894  0.85472281  0.12368292    -0.13900
Br1849     Br  0.49999248  0.83176077  0.10726332    -0.05900
Br1850     Br  0.51580266  0.91789522  0.22655461    -0.00300
Br1851     Br  0.55273210  0.87091479  0.99946903     0.00100
Br1852     Br  0.56824137  0.84622405  0.17363206    -0.04300
Br1853     Br  0.45757510  0.84430531  0.16606397     0.00200
Br1854     Br  0.55458301  0.91008402  0.16025541    -0.03600
Br1855     Br  0.51389230  0.89050868  0.06040781    -0.04400
Br1856     Br  0.61240130  0.83912616  0.11479193    -0.00500
C1857       C  0.36066616  0.72416677  0.08419681     0.01000
C1858       C  0.35658397  0.71864437  0.12072625     0.03800
C1859       C  0.36232879  0.73511318  0.14779562    -0.12300
C1860       C  0.37371339  0.75636184  0.13854844     0.23100
C1861       C  0.37822135  0.76152228  0.10206716    -0.12900
C1862       C  0.37046440  0.74618815  0.07504253     0.04500
C1863       C  0.38055317  0.77374025  0.16664356     0.26900
C1864       C  0.36814609  0.79510325  0.16954376    -0.13500
C1865       C  0.37589564  0.81273858  0.19330566     0.05000
C1866       C  0.39533835  0.80862446  0.21647455    -0.09500
C1867       C  0.40757227  0.78686391  0.21370232     0.05800
C1868       C  0.40051814  0.76985456  0.18826772    -0.13900
Br1869     Br  0.39592597  0.78923956  0.08903530    -0.05900
Br1870     Br  0.34444421  0.68817872  0.13376485    -0.00300
Br1871     Br  0.36073242  0.84314006  0.19087423     0.00100
Br1872     Br  0.41874179  0.74142925  0.18190018    -0.04300
Br1873     Br  0.37217729  0.75612817  0.02528699     0.00200
Br1874     Br  0.35486457  0.72854271  0.19749668    -0.03600
Br1875     Br  0.34062958  0.80038855  0.13999264    -0.04400
Br1876     Br  0.43375774  0.77941193  0.24483084    -0.00500
C1877       C  0.25519277  0.84158104  0.55209828     0.01000
C1878       C  0.27195225  0.82573842  0.53769209     0.03800
C1879       C  0.29378777  0.83401166  0.52457567    -0.12300
C1880       C  0.29960588  0.85808212  0.52706068     0.23100
C1881       C  0.28401907  0.87341061  0.54509650    -0.12900
C1882       C  0.26175658  0.86538749  0.55688008     0.04500
C1883       C  0.32040036  0.86766667  0.50673872     0.26900
C1884       C  0.34352778  0.86567228  0.52025509    -0.13500
C1885       C  0.36299240  0.87258983  0.49882777     0.05000
C1886       C  0.35956168  0.88173549  0.46370473    -0.09500
C1887       C  0.33629383  0.88459677  0.45094247     0.05800
C1888       C  0.31692033  0.87785769  0.47244002    -0.13900
Br1889     Br  0.29298891  0.90575281  0.55219180    -0.05900
Br1890     Br  0.26528535  0.79249021  0.53672757    -0.00300
Br1891     Br  0.39446911  0.86933911  0.51744866     0.00100
Br1892     Br  0.28534845  0.88161480  0.45412505    -0.04300
Br1893     Br  0.23967811  0.88776581  0.57647894     0.00200
Br1894     Br  0.31535316  0.81250656  0.50158787    -0.03600
Br1895     Br  0.34843696  0.85308909  0.56793196    -0.04400
Br1896     Br  0.33069145  0.89540125  0.40236539    -0.00500
C1897       C  0.47892344  0.29727482  0.68707766     0.01000
C1898       C  0.47111871  0.27943825  0.66323065     0.03800
C1899       C  0.48506643  0.25935898  0.65725535    -0.12300
C1900       C  0.50523704  0.25534500  0.67832396     0.23100
C1901       C  0.51300601  0.27277926  0.70235172    -0.12900
C1902       C  0.50085073  0.29428873  0.70482648     0.04500
C1903       C  0.51677513  0.23190277  0.67786264     0.26900
C1904       C  0.50527227  0.21268475  0.69397303    -0.13500
C1905       C  0.51589532  0.19040995  0.69397639     0.05000
C1906       C  0.53919373  0.18756035  0.68124522    -0.09500
C1907       C  0.55047817  0.20673197  0.66408929     0.05800
C1908       C  0.53902748  0.22871298  0.66179461    -0.13900
Br1909     Br  0.53954126  0.26661608  0.73351418    -0.05900
Br1910     Br  0.44037883  0.28058137  0.64111859    -0.00300
Br1911     Br  0.49738273  0.16361162  0.70865101     0.00100
Br1912     Br  0.55388666  0.25466741  0.63718343    -0.04300
Br1913     Br  0.51561307  0.31973864  0.73063934     0.00200
Br1914     Br  0.47611268  0.23666097  0.62110926    -0.03600
Br1915     Br  0.47519472  0.21703858  0.71746812    -0.04400
Br1916     Br  0.58182083  0.20360716  0.64468474    -0.00500
C1917       C  0.42585848  0.12094638  0.97322546     0.01000
C1918       C  0.43995207  0.13685367  0.95263253     0.03800
C1919       C  0.45816099  0.12838808  0.93027294    -0.12300
C1920       C  0.46187042  0.10412466  0.92609146     0.23100
C1921       C  0.44807818  0.08816752  0.94575288    -0.12900
C1922       C  0.43059123  0.09635396  0.96980864     0.04500
C1923       C  0.47885888  0.09567244  0.89830309     0.26900
C1924       C  0.47184968  0.09513233  0.86189997    -0.13500
C1925       C  0.48843473  0.09049890  0.83467035     0.05000
C1926       C  0.51208121  0.08582626  0.84362683    -0.09500
C1927       C  0.51886673  0.08500677  0.88013236     0.05800
C1928       C  0.50231533  0.09012278  0.90746590    -0.13900
Br1929     Br  0.45303844  0.05485978  0.93868824    -0.05900
Br1930     Br  0.43414825  0.17043118  0.95150108    -0.00300
Br1931     Br  0.47885384  0.09143971  0.78481311     0.00100
Br1932     Br  0.51191202  0.09073662  0.95725629    -0.04300
Br1933     Br  0.41414857  0.07295165  0.99793411     0.00200
Br1934     Br  0.47803771  0.15007788  0.90403759    -0.03600
Br1935     Br  0.43958487  0.10182797  0.84932230    -0.04400
Br1936     Br  0.55105195  0.07801489  0.89235362    -0.00500
C1937       C  0.60192188  0.98045342  0.72971194     0.01000
C1938       C  0.58717718  0.96234910  0.74280407     0.03800
C1939       C  0.59690762  0.94223708  0.75953009    -0.12300
C1940       C  0.62151817  0.93945257  0.76194400     0.23100
C1941       C  0.63629168  0.95697017  0.74744461    -0.12900
C1942       C  0.62659446  0.97748745  0.73185975     0.04500
C1943       C  0.63177367  0.91873860  0.78138165     0.26900
C1944       C  0.63987010  0.92120115  0.81711738    -0.13500
C1945       C  0.64878284  0.90160678  0.83604964     0.05000
C1946       C  0.64809398  0.87899803  0.82049968    -0.09500
C1947       C  0.64001384  0.87650266  0.78470964     0.05800
C1948       C  0.63257323  0.89639833  0.76487812    -0.13900
Br1949     Br  0.66996328  0.95333541  0.75077065    -0.05900
Br1950     Br  0.55352277  0.96502311  0.73770890    -0.00300
Br1951     Br  0.66011722  0.90552454  0.88461870     0.00100
Br1952     Br  0.62249526  0.89299892  0.71554877    -0.04300
Br1953     Br  0.64737152  0.00244141  0.71681801     0.00200
Br1954     Br  0.57652451  0.91919378  0.78149267    -0.03600
Br1955     Br  0.63674945  0.95105541  0.84133630    -0.04400
Br1956     Br  0.63832232  0.84564884  0.76335923    -0.00500
C1957       C  0.53427774  0.02971099  0.56940392     0.01000
C1958       C  0.51863717  0.04216855  0.54645310     0.03800
C1959       C  0.50443201  0.03008465  0.52149111    -0.12300
C1960       C  0.50711548  0.00568445  0.51668726     0.23100
C1961       C  0.52450116  0.99359570  0.53663086    -0.12900
C1962       C  0.53761607  0.00535834  0.56351304     0.04500
C1963       C  0.49183260  0.99271805  0.49055424     0.26900
C1964       C  0.47216863  0.97982761  0.50281927    -0.13500
C1965       C  0.45923422  0.96557670  0.47870855     0.05000
C1966       C  0.46554945  0.96459127  0.44191220    -0.09500
C1967       C  0.48379652  0.97932965  0.42922008     0.05800
C1968       C  0.49719558  0.99286706  0.45346947    -0.13900
Br1969     Br  0.52996291  0.96067998  0.52731203    -0.05900
Br1970     Br  0.51735256  0.07610435  0.54760084    -0.00300
Br1971     Br  0.43389067  0.94636490  0.49661632     0.00100
Br1972     Br  0.52362782  0.01085748  0.43611757    -0.04300
Br1973     Br  0.55892497  0.98754966  0.59341125     0.00200
Br1974     Br  0.48053339  0.04681080  0.49481163    -0.03600
Br1975     Br  0.46343703  0.98133128  0.55300039    -0.04400
Br1976     Br  0.49018880  0.98134033  0.37818702    -0.00500
C1977       C  0.61835827  0.15642654  0.82292495     0.01000
C1978       C  0.63774466  0.17055232  0.81276434     0.03800
C1979       C  0.64597416  0.18830066  0.83595887    -0.12300
C1980       C  0.63447154  0.19264082  0.86886564     0.23100
C1981       C  0.61511430  0.17868661  0.87908854    -0.12900
C1982       C  0.60744042  0.16027406  0.85663976     0.04500
C1983       C  0.64259823  0.21193287  0.89279567     0.26900
C1984       C  0.65753164  0.20694414  0.92210316    -0.13500
C1985       C  0.66248951  0.22449861  0.94778097     0.05000
C1986       C  0.65339512  0.24747002  0.94318079    -0.09500
C1987       C  0.64092877  0.25299633  0.91138894     0.05800
C1988       C  0.63487157  0.23515867  0.88688535    -0.13900
Br1989     Br  0.59877800  0.18527250  0.92358680    -0.05900
Br1990     Br  0.65235000  0.16692227  0.76618717    -0.00300
Br1991     Br  0.68026905  0.21632473  0.99020220     0.00100
Br1992     Br  0.61526784  0.24233255  0.84589876    -0.04300
Br1993     Br  0.58277053  0.13959261  0.87309891     0.00200
Br1994     Br  0.67285665  0.20707829  0.82260974    -0.03600
Br1995     Br  0.67070768  0.17581995  0.92716919    -0.04400
Br1996     Br  0.63292501  0.28525047  0.90081179    -0.00500
C1997       C  0.75011734  0.13281558  0.48634293     0.01000
C1998       C  0.73326111  0.14850506  0.50077400     0.03800
C1999       C  0.71260411  0.13986317  0.51718730    -0.12300
C2000       C  0.70833451  0.11546105  0.51880163     0.23100
C2001       C  0.72417840  0.09988629  0.50190675    -0.12900
C2002       C  0.74500719  0.10845307  0.48579870     0.04500
C2003       C  0.68798895  0.10617228  0.54010171     0.26900
C2004       C  0.69113335  0.09980314  0.57655849    -0.13500
C2005       C  0.67170981  0.09292544  0.59777437     0.05000
C2006       C  0.64901381  0.09175870  0.58256839    -0.09500
C2007       C  0.64608838  0.09693935  0.54560830     0.05800
C2008       C  0.66546081  0.10427714  0.52451508    -0.13900
Br2009     Br  0.71757946  0.06662882  0.50222650    -0.05900
Br2010     Br  0.73819063  0.18199990  0.49730541    -0.00300
Br2011     Br  0.67595354  0.08674315  0.64843520     0.00100
Br2012     Br  0.66116994  0.11241234  0.47449430    -0.04300
Br2013     Br  0.76709679  0.08636671  0.46542291     0.00200
Br2014     Br  0.69040449  0.16142166  0.53857601    -0.03600
Br2015     Br  0.72207780  0.10125938  0.59771243    -0.04400
Br2016     Br  0.61540915  0.09408358  0.52407700    -0.00500
loop_ 
_geom_bond_atom_site_label_1 
_geom_bond_atom_site_label_2 
_geom_bond_distance 
_geom_bond_site_symmetry_2 
_ccdc_geom_bond_type 
Zr1           O2   2.441       .  S
Zr1           O3   2.484       .  S
Zr1           O4   2.487       .  S
Zr1           O7   2.482       .  S
Zr1           O9   2.391       .  S
Zr1          O10   2.392       .  S
Zr1          O11   2.429       .  S
Zr1          O12   2.407       .  S
O2           H58   0.990       .  S
O2           H66   0.990       .  S
O3           C23   1.292       .  A
O4           C25   1.294       .  A
O5          Zr15   2.421       .  S
O5           C24   1.282       .  A
O6          Zr14   2.422       .  S
O6           C25   1.283       .  A
O7           C24   1.294       .  A
O8          Zr16   2.403       .  S
O8           C23   1.278       .  A
O9          Zr14   2.405       .  S
O9          Zr16   2.383       .  S
O10         Zr15   2.396       .  S
O10         Zr16   2.384       .  S
O10          H45   0.966       .  S
O11         Zr14   2.408       .  S
O11         Zr31   2.394       .  S
O11          H48   0.963       .  S
O12         Zr15   2.392       .  S
O12         Zr31   2.397       .  S
Zr13         O38   2.444       .  S
Zr13         O32   2.445       .  S
Zr13         O40   2.431       .  S
Zr13         O28   2.440       .  S
Zr13         O19   2.397       .  S
Zr13         O20   2.410       .  S
Zr13         O21   2.377       .  S
Zr13         O22   2.381       .  S
Zr14         O33   2.437       .  S
Zr14         O26   2.435       .  S
Zr14         O27   2.447       .  S
Zr14         O20   2.394       .  S
Zr14         O21   2.401       .  S
Zr15         O17   2.438       .  S
Zr15         O39   2.436       .  S
Zr15         O41   2.441       .  S
Zr15         O19   2.385       .  S
Zr15         O22   2.394       .  S
Zr16         O42   2.436       .  S
Zr16         O43   2.435       .  S
Zr16         O18   2.437       .  S
Zr16         O19   2.382       .  S
Zr16         O20   2.388       .  S
O17          H54   0.990       .  S
O18          H49   0.990       .  S
O18          H63   0.990       .  S
O20          H46   0.965       .  S
O21         Zr31   2.381       .  S
O22         Zr31   2.381       .  S
O22          H47   0.965       .  S
C23        C1957   1.499       .  S
C24        C2006   1.488       .  S
C25        C1937   1.493   1_545  S
O26          H62   0.990       .  S
O27          C29   1.285       .  A
O28          C29   1.283       .  A
C29        C1926   1.479       .  S
O30         Zr31   2.439       .  S
O30          H59   0.990       .  S
Zr31         O34   2.438       .  S
Zr31         O35   2.434       .  S
Zr31         O36   2.427       .  S
O32          C37   1.285       .  A
O33          H50   0.990       .  S
O33          H65   0.990       .  S
O34          H51   0.990       .  S
O35          H55   0.990       .  S
O35          H64   0.989       .  S
O36          C37   1.282       .  A
C37        C1977   1.487       .  S
O38          H57   0.991       .  S
O38          H61   0.990       .  S
O39          H53   0.990       .  S
O39          H60   0.990       .  S
O40          C44   1.285       .  A
O41          C44   1.285       .  A
O42          H52   0.990       .  S
O43          H56   0.990       .  S
C44        C1906   1.487       .  S
Zr67         O68   2.441       .  S
Zr67         O69   2.481       .  S
Zr67         O70   2.501       .  S
Zr67         O73   2.477       .  S
Zr67         O75   2.386       .  S
Zr67         O76   2.392       .  S
Zr67         O77   2.424       .  S
Zr67         O78   2.421       .  S
O68         H124   0.990       .  S
O68         H132   0.990       .  S
O69          C89   1.291       .  A
O70          C91   1.296       .  A
O71         Zr81   2.432       .  S
O71          C90   1.285       .  A
O72         Zr80   2.430       .  S
O72          C91   1.284       .  A
O73          C90   1.293       .  A
O74         Zr82   2.404       .  S
O74          C89   1.278       .  A
O75         Zr80   2.413       .  S
O75         Zr82   2.387       .  S
O76         Zr81   2.404       .  S
O76         Zr82   2.376       .  S
O76         H111   0.966       .  S
O77         Zr80   2.408       .  S
O77         Zr97   2.386       .  S
O77         H114   0.963       .  S
O78         Zr81   2.404       .  S
O78         Zr97   2.404       .  S
Zr79        O104   2.443       .  S
Zr79         O98   2.436       .  S
Zr79        O106   2.411       .  S
Zr79         O94   2.417       .  S
Zr79         O85   2.401       .  S
Zr79         O86   2.396       .  S
Zr79         O87   2.375       .  S
Zr79         O88   2.374       .  S
Zr80         O99   2.437       .  S
Zr80         O92   2.435       .  S
Zr80         O93   2.460       .  S
Zr80         O86   2.387       .  S
Zr80         O87   2.397       .  S
Zr81         O83   2.435       .  S
Zr81        O105   2.434       .  S
Zr81        O107   2.457       .  S
Zr81         O85   2.389       .  S
Zr81         O88   2.390       .  S
Zr82        O108   2.434       .  S
Zr82        O109   2.435       .  S
Zr82         O84   2.438       .  S
Zr82         O85   2.396       .  S
Zr82         O86   2.374       .  S
O83         H120   0.990       .  S
O84         H115   0.990       .  S
O84         H129   0.990       .  S
O86         H112   0.958       .  S
O87         Zr97   2.382       .  S
O88         Zr97   2.374       .  S
O88         H113   0.966       .  S
C89        C1966   1.493       .  S
C90        C1826   1.510       .  S
C91        C1886   1.499       .  S
O92         H128   0.990       .  S
O93          C95   1.289       .  A
O94          C95   1.281       .  A
C95        C1797   1.474       .  S
O96         Zr97   2.440       .  S
O96         H125   0.990       .  S
Zr97        O100   2.437       .  S
Zr97        O101   2.441       .  S
Zr97        O102   2.432       .  S
O98         C103   1.283       .  A
O99         H116   0.990       .  S
O99         H131   0.990       .  S
O100        H117   0.990       .  S
O101        H121   0.989       .  S
O101        H130   0.990       .  S
O102        C103   1.283       .  A
C103       C1866   1.499       .  S
O104        H123   0.991       .  S
O104        H127   0.990       .  S
O105        H119   0.990       .  S
O105        H126   0.989       .  S
O106        C110   1.278       .  A
O107        C110   1.289       .  A
O108        H118   0.989       .  S
O109        H122   0.990       .  S
C110       C1837   1.484       .  S
Zr133       O134   2.440       .  S
Zr133       O135   2.474       .  S
Zr133       O136   2.485       .  S
Zr133       O139   2.482       .  S
Zr133       O141   2.388       .  S
Zr133       O142   2.392       .  S
Zr133       O143   2.422       .  S
Zr133       O144   2.404       .  S
O134        H190   0.990       .  S
O134        H198   0.990       .  S
O135        C155   1.291       .  A
O136        C157   1.293       .  A
O137       Zr147   2.407       .  S
O137        C156   1.279       .  A
O138       Zr146   2.419       .  S
O138        C157   1.282       .  A
O139        C156   1.294       .  A
O140       Zr148   2.401       .  S
O140        C155   1.278       .  A
O141       Zr146   2.401       .  S
O141       Zr148   2.386       .  S
O142       Zr147   2.398       .  S
O142       Zr148   2.382       .  S
O142        H177   0.967       .  S
O143       Zr146   2.407       .  S
O143       Zr163   2.398       .  S
O143        H180   0.964       .  S
O144       Zr147   2.390       .  S
O144       Zr163   2.393       .  S
Zr145       O170   2.443   1_556  S
Zr145       O164   2.443   1_556  S
Zr145       O172   2.424       .  S
Zr145       O160   2.413   1_556  S
Zr145       O151   2.398       .  S
Zr145       O152   2.407       .  S
Zr145       O153   2.377   1_556  S
Zr145       O154   2.374       .  S
Zr146       O165   2.436   1_556  S
Zr146       O158   2.434   1_556  S
Zr146       O159   2.448   1_556  S
Zr146       O152   2.390       .  S
Zr146       O153   2.397   1_556  S
Zr147       O149   2.436       .  S
Zr147       O171   2.438       .  S
Zr147       O173   2.416       .  S
Zr147       O151   2.388       .  S
Zr147       O154   2.392       .  S
Zr148       O174   2.435       .  S
Zr148       O175   2.437       .  S
Zr148       O150   2.437       .  S
Zr148       O151   2.386       .  S
Zr148       O152   2.383       .  S
O149        H186   0.990       .  S
O150        H181   0.990       .  S
O150        H195   0.990       .  S
O152        H178   0.965       .  S
O153       Zr163   2.380   1_554  S
O154       Zr163   2.377       .  S
O154        H179   0.968       .  S
C155       C1777   1.489       .  S
C156       C1946   1.485       .  S
C157       C1757   1.492       .  S
O158        H194   0.990   1_554  S
O159        C161   1.287       .  A
O160        C161   1.280       .  A
C161       C1746   1.481       .  S
O162       Zr163   2.436       .  S
O162        H191   0.990       .  S
Zr163       O166   2.436   1_556  S
Zr163       O167   2.439       .  S
Zr163       O168   2.424   1_556  S
O164        C169   1.285       .  A
O165        H182   0.990       .  S
O165        H197   0.990       .  S
O166        H183   0.990       .  S
O167        H187   0.990       .  S
O167        H196   0.990       .  S
O168        C169   1.281       .  A
C169       C1846   1.477       .  S
O170        H189   0.990       .  S
O170        H193   0.991       .  S
O171        H185   0.990       .  S
O171        H192   0.990       .  S
O172        C176   1.281       .  A
O173        C176   1.281       .  A
O174        H184   0.990       .  S
O175        H188   0.990       .  S
C176       C1717   1.467       .  S
Zr199       O200   2.444       .  S
Zr199       O201   2.479       .  S
Zr199       O202   2.462       .  S
Zr199       O205   2.455       .  S
Zr199       O207   2.388       .  S
Zr199       O208   2.382       .  S
Zr199       O209   2.421       .  S
Zr199       O210   2.413       .  S
O200        H256   0.990       .  S
O200        H264   0.990       .  S
O201        C221   1.291       .  A
O202        C223   1.288       .  A
O203       Zr213   2.407       .  S
O203        C222   1.280       .  A
O204       Zr212   2.445       .  S
O204        C223   1.287       .  A
O205        C222   1.287       .  A
O206       Zr214   2.388       .  S
O206        C221   1.275       .  A
O207       Zr212   2.412       .  S
O207       Zr214   2.393       .  S
O208       Zr213   2.399       .  S
O208       Zr214   2.374       .  S
O208        H243   0.964       .  S
O209       Zr212   2.405       .  S
O209       Zr229   2.391       .  S
O209        H246   0.962       .  S
O210       Zr213   2.389       .  S
O210       Zr229   2.395       .  S
Zr211       O236   2.442       .  S
Zr211       O230   2.430       .  S
Zr211       O238   2.432       .  S
Zr211       O226   2.421       .  S
Zr211       O217   2.393       .  S
Zr211       O218   2.404       .  S
Zr211       O219   2.381       .  S
Zr211       O220   2.377       .  S
Zr212       O231   2.436       .  S
Zr212       O224   2.434       .  S
Zr212       O225   2.473       .  S
Zr212       O218   2.393       .  S
Zr212       O219   2.397       .  S
Zr213       O215   2.436       .  S
Zr213       O237   2.438       .  S
Zr213       O239   2.417       .  S
Zr213       O217   2.390       .  S
Zr213       O220   2.394       .  S
Zr214       O240   2.435       .  S
Zr214       O241   2.437       .  S
Zr214       O216   2.437       .  S
Zr214       O217   2.383       .  S
Zr214       O218   2.363       .  S
O215        H252   0.990       .  S
O216        H247   0.990       .  S
O216        H261   0.990       .  S
O218        H244   0.963       .  S
O219       Zr229   2.386       .  S
O220       Zr229   2.373       .  S
O220        H245   0.966       .  S
C221       C1786   1.492       .  S
C222       C1637   1.480       .  S
C223       C1697   1.487       .  S
O224        H260   0.990       .  S
O225        C227   1.293       .  A
O226        C227   1.282       .  A
C227       C1617   1.485       .  S
O228       Zr229   2.436       .  S
O228        H257   0.989       .  S
Zr229       O232   2.438       .  S
Zr229       O233   2.440       .  S
Zr229       O234   2.424       .  S
O230        C235   1.281       .  A
O231        H248   0.990       .  S
O231        H263   0.990       .  S
O232        H249   0.990       .  S
O233        H253   0.990       .  S
O233        H262   0.990       .  S
O234        C235   1.281       .  A
C235       C1686   1.473       .  S
O236        H255   0.990       .  S
O236        H259   0.991       .  S
O237        H251   0.990       .  S
O237        H258   0.988       .  S
O238        C242   1.283       .  A
O239        C242   1.281       .  A
O240        H250   0.990       .  S
O241        H254   0.990       .  S
C242       C1657   1.476       .  S
Zr265       O266   2.444       .  S
Zr265       O267   2.468       .  S
Zr265       O268   2.467       .  S
Zr265       O271   2.438       .  S
Zr265       O273   2.384       .  S
Zr265       O274   2.388       .  S
Zr265       O275   2.414       .  S
Zr265       O276   2.419       .  S
O266        H322   0.991       .  S
O266        H330   0.990       .  S
O267        C287   1.289       .  A
O268        C289   1.288       .  A
O269       Zr279   2.430       .  S
O269        C288   1.285       .  A
O270       Zr278   2.444       .  S
O270        C289   1.287       .  A
O271        C288   1.285       .  A
O272       Zr280   2.400       .  S
O272        C287   1.277       .  A
O273       Zr278   2.407       .  S
O273       Zr280   2.389       .  S
O274       Zr279   2.399       .  S
O274       Zr280   2.371       .  S
O274        H309   0.966       .  S
O275       Zr278   2.403       .  S
O275       Zr295   2.377       .  S
O275        H312   0.960       .  S
O276       Zr279   2.395       .  S
O276       Zr295   2.401       .  S
Zr277       O302   2.442       .  S
Zr277       O296   2.443       .  S
Zr277       O304   2.430       .  S
Zr277       O292   2.438       .  S
Zr277       O283   2.401       .  S
Zr277       O284   2.412       .  S
Zr277       O285   2.374       .  S
Zr277       O286   2.385       .  S
Zr278       O297   2.436       .  S
Zr278       O290   2.434       .  S
Zr278       O291   2.454       .  S
Zr278       O284   2.398       .  S
Zr278       O285   2.404       .  S
Zr279       O281   2.435       .  S
Zr279       O303   2.436       .  S
Zr279       O305   2.441       .  S
Zr279       O283   2.385       .  S
Zr279       O286   2.399       .  S
Zr280       O306   2.434       .  S
Zr280       O307   2.436   1_455  S
Zr280       O282   2.436       .  S
Zr280       O283   2.386       .  S
Zr280       O284   2.374       .  S
O281        H318   0.990       .  S
O282        H313   0.990       .  S
O282        H327   0.990       .  S
O284        H310   0.964       .  S
O285       Zr295   2.390       .  S
O286       Zr295   2.377       .  S
O286        H311   0.966       .  S
C287       C1557   1.489       .  S
C288       C1546   1.482   1_545  S
C289       C1597   1.483       .  S
O290        H326   0.990       .  S
O291        C293   1.289       .  A
O292        C293   1.284       .  A
C293       C1497   1.483       .  S
O294       Zr295   2.439       .  S
O294        H323   0.990       .  S
Zr295       O298   2.439       .  S
Zr295       O299   2.440       .  S
Zr295       O300   2.419       .  S
O296        C301   1.283       .  A
O297        H314   0.990       .  S
O297        H329   0.990       .  S
O298        H315   0.990       .  S
O299        H319   0.990       .  S
O299        H328   0.990       .  S
O300        C301   1.279       .  A
C301       C1577   1.476       .  S
O302        H321   0.991       .  S
O302        H325   0.990       .  S
O303        H317   0.990       .  S
O303        H324   0.989       .  S
O304        C308   1.283       .  A
O305        C308   1.286       .  A
O306        H316   0.990   1_455  S
O307        H320   0.990   1_655  S
C308       C1517   1.481       .  S
Zr331       O332   2.442       .  S
Zr331       O333   2.482       .  S
Zr331       O334   2.464       .  S
Zr331       O337   2.477       .  S
Zr331       O339   2.392       .  S
Zr331       O340   2.388       .  S
Zr331       O341   2.428       .  S
Zr331       O342   2.401       .  S
O332        H388   0.990       .  S
O332        H396   0.991       .  S
O333        C353   1.291       .  A
O334        C355   1.289       .  A
O335       Zr345   2.433       .  S
O335        C354   1.285       .  A
O336       Zr344   2.418       .  S
O336        C355   1.283       .  A
O337        C354   1.292       .  A
O338       Zr346   2.404       .  S
O338        C353   1.278       .  A
O339       Zr344   2.409       .  S
O339       Zr346   2.377       .  S
O340       Zr345   2.397       .  S
O340       Zr346   2.383       .  S
O340        H375   0.966       .  S
O341       Zr344   2.408       .  S
O341       Zr361   2.387       .  S
O341        H378   0.964       .  S
O342       Zr345   2.391       .  S
O342       Zr361   2.386       .  S
Zr343       O368   2.443       .  S
Zr343       O362   2.453       .  S
Zr343       O370   2.444       .  S
Zr343       O358   2.438       .  S
Zr343       O349   2.400       .  S
Zr343       O350   2.415       .  S
Zr343       O351   2.379       .  S
Zr343       O352   2.384       .  S
Zr344       O363   2.436       .  S
Zr344       O356   2.433       .  S
Zr344       O357   2.463       .  S
Zr344       O350   2.390       .  S
Zr344       O351   2.392       .  S
Zr345       O347   2.436       .  S
Zr345       O369   2.436       .  S
Zr345       O371   2.444       .  S
Zr345       O349   2.390       .  S
Zr345       O352   2.394       .  S
Zr346       O372   2.431       .  S
Zr346       O373   2.437   1_655  S
Zr346       O348   2.438       .  S
Zr346       O349   2.391       .  S
Zr346       O350   2.388       .  S
O347        H384   0.990       .  S
O348        H379   0.990       .  S
O348        H393   0.990       .  S
O350        H376   0.964       .  S
O351       Zr361   2.384       .  S
O352       Zr361   2.389       .  S
O352        H377   0.966       .  S
C353       C1566   1.496       .  S
C354       C1766   1.489       .  S
C355       C1457   1.479       .  S
O356        H392   0.990       .  S
O357        C359   1.290       .  A
O358        C359   1.285       .  A
C359       C1477   1.496       .  S
O360       Zr361   2.440       .  S
O360        H389   0.990       .  S
Zr361       O364   2.438       .  S
Zr361       O365   2.437       .  S
Zr361       O366   2.406       .  S
O362        C367   1.286       .  A
O363        H380   0.990       .  S
O363        H395   0.990       .  S
O364        H381   0.990       .  S
O365        H385   0.990       .  S
O365        H394   0.990       .  S
O366        C367   1.277       .  A
C367       C1666   1.472       .  S
O368        H387   0.990       .  S
O368        H391   0.991       .  S
O369        H383   0.990       .  S
O369        H390   0.990       .  S
O370        C374   1.284       .  A
O371        C374   1.286       .  A
O372        H382   0.990   1_655  S
O373        H386   0.990       .  S
C374       C1437   1.478       .  S
Zr397       O398   2.441       .  S
Zr397       O399   2.468       .  S
Zr397       O400   2.460       .  S
Zr397       O403   2.459       .  S
Zr397       O405   2.384       .  S
Zr397       O406   2.387       .  S
Zr397       O407   2.416       .  S
Zr397       O408   2.420       .  S
O398        H454   0.990       .  S
O398        H462   0.990       .  S
O399        C419   1.289       .  A
O400        C421   1.287       .  A
O401       Zr411   2.445       .  S
O401        C420   1.288       .  A
O402       Zr410   2.439       .  S
O402        C421   1.285       .  A
O403        C420   1.289       .  A
O404       Zr412   2.402       .  S
O404        C419   1.277       .  A
O405       Zr410   2.408       .  S
O405       Zr412   2.385       .  S
O406       Zr411   2.403       .  S
O406       Zr412   2.370       .  S
O406        H441   0.967       .  S
O407       Zr410   2.403       .  S
O407       Zr427   2.376       .  S
O407        H444   0.959       .  S
O408       Zr411   2.398       .  S
O408       Zr427   2.399       .  S
Zr409       O434   2.443       .  S
Zr409       O428   2.455       .  S
Zr409       O436   2.417       .  S
Zr409       O424   2.452       .  S
Zr409       O415   2.410       .  S
Zr409       O416   2.404       .  S
Zr409       O417   2.372       .  S
Zr409       O418   2.388       .  S
Zr410       O429   2.435       .  S
Zr410       O422   2.435       .  S
Zr410       O423   2.454       .  S
Zr410       O416   2.402       .  S
Zr410       O417   2.399       .  S
Zr411       O413   2.436       .  S
Zr411       O435   2.436       .  S
Zr411       O437   2.454       .  S
Zr411       O415   2.389       .  S
Zr411       O418   2.405       .  S
Zr412       O438   2.437       .  S
Zr412       O439   2.434       .  S
Zr412       O414   2.433       .  S
Zr412       O415   2.387       .  S
Zr412       O416   2.384       .  S
O413        H450   0.990       .  S
O414        H445   0.990       .  S
O414        H459   0.989       .  S
O416        H442   0.961       .  S
O417       Zr427   2.390       .  S
O418       Zr427   2.372       .  S
O418        H443   0.966       .  S
C419       C1426   1.492       .  S
C420       C1877   1.500       .  S
C421       C1537   1.477       .  S
O422        H458   0.990       .  S
O423        C425   1.288       .  A
O424        C425   1.286       .  A
C425       C1626   1.486       .  S
O426       Zr427   2.435       .  S
O426        H455   0.990       .  S
Zr427       O430   2.437       .  S
Zr427       O431   2.438       .  S
Zr427       O432   2.411       .  S
O428        C433   1.287       .  A
O429        H446   0.990       .  S
O429        H461   0.990       .  S
O430        H447   0.990       .  S
O431        H451   0.990       .  S
O431        H460   0.990       .  S
O432        C433   1.278       .  A
C433       C1486   1.481       .  S
O434        H453   0.991       .  S
O434        H457   0.991       .  S
O435        H449   0.990       .  S
O435        H456   0.990       .  S
O436        C440   1.281       .  A
O437        C440   1.288       .  A
O438        H448   0.990       .  S
O439        H452   0.990       .  S
C440       C1397   1.478       .  S
Zr463       O464   2.441       .  S
Zr463       O465   2.472       .  S
Zr463       O466   2.456       .  S
Zr463       O469   2.460       .  S
Zr463       O471   2.386       .  S
Zr463       O472   2.383       .  S
Zr463       O473   2.423       .  S
Zr463       O474   2.406       .  S
O464        H520   0.990       .  S
O464        H528   0.990       .  S
O465        C485   1.290       .  A
O466        C487   1.287       .  A
O467       Zr477   2.404       .  S
O467        C486   1.279       .  A
O468       Zr476   2.429   1_556  S
O468        C487   1.284       .  A
O469        C486   1.289       .  A
O470       Zr478   2.404       .  S
O470        C485   1.278       .  A
O471       Zr476   2.405   1_556  S
O471       Zr478   2.382       .  S
O472       Zr477   2.396       .  S
O472       Zr478   2.379       .  S
O472        H507   0.966       .  S
O473       Zr476   2.415   1_556  S
O473       Zr493   2.402       .  S
O473        H510   0.965       .  S
O474       Zr477   2.393       .  S
O474       Zr493   2.400       .  S
Zr475       O500   2.442   1_556  S
Zr475       O494   2.429   1_556  S
Zr475       O502   2.407       .  S
Zr475       O490   2.415   1_556  S
Zr475       O481   2.398       .  S
Zr475       O482   2.403       .  S
Zr475       O483   2.370   1_556  S
Zr475       O484   2.378       .  S
Zr476       O495   2.436       .  S
Zr476       O488   2.433       .  S
Zr476       O489   2.459       .  S
Zr476       O482   2.395   1_554  S
Zr476       O483   2.400       .  S
Zr477       O479   2.437       .  S
Zr477       O501   2.436       .  S
Zr477       O503   2.422       .  S
Zr477       O481   2.381       .  S
Zr477       O484   2.401       .  S
Zr478       O504   2.435       .  S
Zr478       O505   2.435       .  S
Zr478       O480   2.434       .  S
Zr478       O481   2.383       .  S
Zr478       O482   2.381       .  S
O479        H516   0.990       .  S
O480        H511   0.990       .  S
O480        H525   0.989       .  S
O482        H508   0.964       .  S
O483       Zr493   2.375   1_554  S
O484       Zr493   2.374       .  S
O484        H509   0.966       .  S
C485       C1417   1.490       .  S
C486       C1386   1.475       .  S
C487       C1346   1.483       .  S
O488        H524   0.990       .  S
O489        C491   1.289       .  A
O490        C491   1.280       .  A
C491       C1857   1.480       .  S
O492       Zr493   2.435       .  S
O492        H521   0.990       .  S
Zr493       O496   2.435   1_556  S
Zr493       O497   2.437       .  S
Zr493       O498   2.443   1_556  S
O494        C499   1.280       .  A
O495        H512   0.990       .  S
O495        H527   0.990       .  S
O496        H513   0.990       .  S
O497        H517   0.990       .  S
O497        H526   0.990       .  S
O498        C499   1.284       .  A
C499       C1357   1.505       .  S
O500        H519   0.989   1_554  S
O500        H523   0.990       .  S
O501        H515   0.989       .  S
O501        H522   0.990       .  S
O502        C506   1.279       .  A
O503        C506   1.281       .  A
O504        H514   0.990       .  S
O505        H518   0.990       .  S
C506       C1726   1.458       .  S
Zr529       O530   2.441       .  S
Zr529       O531   2.469       .  S
Zr529       O532   2.473       .  S
Zr529       O535   2.469       .  S
Zr529       O537   2.386       .  S
Zr529       O538   2.394       .  S
Zr529       O539   2.424       .  S
Zr529       O540   2.403       .  S
O530        H586   0.990       .  S
O530        H594   0.990       .  S
O531        C551   1.289       .  A
O532        C553   1.290       .  A
O533       Zr543   2.430       .  S
O533        C552   1.284       .  A
O534       Zr542   2.430       .  S
O534        C553   1.284       .  A
O535        C552   1.291       .  A
O536       Zr544   2.393       .  S
O536        C551   1.275       .  A
O537       Zr542   2.399       .  S
O537       Zr544   2.382       .  S
O538       Zr543   2.396       .  S
O538       Zr544   2.385       .  S
O538        H573   0.966       .  S
O539       Zr542   2.407       .  S
O539       Zr559   2.409       .  S
O539        H576   0.966       .  S
O540       Zr543   2.395       .  S
O540       Zr559   2.387       .  S
Zr541       O566   2.443       .  S
Zr541       O560   2.434       .  S
Zr541       O568   2.429       .  S
Zr541       O556   2.424       .  S
Zr541       O547   2.398       .  S
Zr541       O548   2.403       .  S
Zr541       O549   2.379       .  S
Zr541       O550   2.382       .  S
Zr542       O561   2.437       .  S
Zr542       O554   2.432       .  S
Zr542       O555   2.453       .  S
Zr542       O548   2.392       .  S
Zr542       O549   2.395       .  S
Zr543       O545   2.435       .  S
Zr543       O567   2.437       .  S
Zr543       O569   2.452       .  S
Zr543       O547   2.393       .  S
Zr543       O550   2.396       .  S
Zr544       O570   2.435       .  S
Zr544       O571   2.435       .  S
Zr544       O546   2.437       .  S
Zr544       O547   2.388       .  S
Zr544       O548   2.384       .  S
O545        H582   0.990       .  S
O546        H577   0.990       .  S
O546        H591   0.990       .  S
O548        H574   0.965       .  S
O549       Zr559   2.374       .  S
O550       Zr559   2.385       .  S
O550        H575   0.965       .  S
C551       C1277   1.473       .  S
C552       C1317   1.484       .  S
C553       C1257   1.495       .  S
O554        H590   0.990       .  S
O555        C557   1.288       .  A
O556        C557   1.283       .  A
C557       C1586   1.495       .  S
O558       Zr559   2.438       .  S
O558        H587   0.990       .  S
Zr559       O562   2.435       .  S
Zr559       O563   2.439       .  S
Zr559       O564   2.427       .  S
O560        C565   1.283       .  A
O561        H578   0.990       .  S
O561        H593   0.990       .  S
O562        H579   0.990       .  S
O563        H583   0.990       .  S
O563        H592   0.990       .  S
O564        C565   1.281       .  A
C565       C1297   1.473       .  S
O566        H585   0.990       .  S
O566        H589   0.990       .  S
O567        H581   0.989       .  S
O567        H588   0.990       .  S
O568        C572   1.282       .  A
O569        C572   1.288       .  A
O570        H580   0.990       .  S
O571        H584   0.990       .  S
C572       C1237   1.488       .  S
Zr595       O596   2.443       .  S
Zr595       O597   2.476       .  S
Zr595       O598   2.477       .  S
Zr595       O601   2.447       .  S
Zr595       O603   2.386       .  S
Zr595       O604   2.390       .  S
Zr595       O605   2.420       .  S
Zr595       O606   2.420       .  S
O596        H652   0.990       .  S
O596        H660   0.990       .  S
O597        C617   1.289       .  A
O598        C619   1.291       .  A
O599       Zr609   2.443       .  S
O599        C618   1.287       .  A
O600       Zr608   2.427       .  S
O600        C619   1.284       .  A
O601        C618   1.286       .  A
O602       Zr610   2.381       .  S
O602        C617   1.273       .  A
O603       Zr608   2.403       .  S
O603       Zr610   2.393       .  S
O604       Zr609   2.400       .  S
O604       Zr610   2.379       .  S
O604        H639   0.965       .  S
O605       Zr608   2.406       .  S
O605       Zr625   2.395       .  S
O605        H642   0.963       .  S
O606       Zr609   2.390       .  S
O606       Zr625   2.405       .  S
Zr607       O632   2.442       .  S
Zr607       O626   2.429       .  S
Zr607       O634   2.422   1_554  S
Zr607       O622   2.425       .  S
Zr607       O613   2.395       .  S
Zr607       O614   2.399       .  S
Zr607       O615   2.369       .  S
Zr607       O616   2.384       .  S
Zr608       O627   2.436       .  S
Zr608       O620   2.435       .  S
Zr608       O621   2.448       .  S
Zr608       O614   2.395       .  S
Zr608       O615   2.396       .  S
Zr609       O611   2.435   1_554  S
Zr609       O633   2.439       .  S
Zr609       O635   2.447   1_554  S
Zr609       O613   2.389       .  S
Zr609       O616   2.400       .  S
Zr610       O636   2.435       .  S
Zr610       O637   2.437       .  S
Zr610       O612   2.439       .  S
Zr610       O613   2.374       .  S
Zr610       O614   2.371       .  S
O611        H648   0.990       .  S
O612        H643   0.991       .  S
O612        H657   0.990       .  S
O614        H640   0.964       .  S
O615       Zr625   2.376       .  S
O616       Zr625   2.371       .  S
O616        H641   0.967   1_554  S
C617       C1286   1.488       .  S
C618       C1606   1.492       .  S
C619       C1817   1.491       .  S
O620        H656   0.990       .  S
O621        C623   1.287       .  A
O622        C623   1.282       .  A
C623       C1197   1.473       .  S
O624       Zr625   2.440       .  S
O624        H653   0.990       .  S
Zr625       O628   2.438       .  S
Zr625       O629   2.442   1_554  S
Zr625       O630   2.446       .  S
O626        C631   1.281   1_554  A
O627        H644   0.990       .  S
O627        H659   0.990       .  S
O628        H645   0.989       .  S
O629        H649   0.989       .  S
O629        H658   0.990       .  S
O630        C631   1.284   1_554  A
C631       C1917   1.514       .  S
O632        H651   0.990       .  S
O632        H655   0.990       .  S
O633        H647   0.989       .  S
O633        H654   0.990       .  S
O634        C638   1.283       .  A
O635        C638   1.287       .  A
O636        H646   0.990       .  S
O637        H650   0.990       .  S
C638       C1217   1.476       .  S
Zr661       O662   2.443       .  S
Zr661       O663   2.470       .  S
Zr661       O664   2.455       .  S
Zr661       O667   2.454       .  S
Zr661       O669   2.385       .  S
Zr661       O670   2.390       .  S
Zr661       O671   2.417       .  S
Zr661       O672   2.407       .  S
O662        H718   0.991       .  S
O662        H726   0.990       .  S
O663        C683   1.289       .  A
O664        C685   1.285       .  A
O665       Zr675   2.432       .  S
O665        C684   1.286       .  A
O666       Zr674   2.411       .  S
O666        C685   1.280       .  A
O667        C684   1.288       .  A
O668       Zr676   2.401       .  S
O668        C683   1.277       .  A
O669       Zr674   2.402       .  S
O669       Zr676   2.383       .  S
O670       Zr675   2.395       .  S
O670       Zr676   2.377       .  S
O670        H705   0.966       .  S
O671       Zr674   2.406       .  S
O671       Zr691   2.380       .  S
O671        H708   0.962       .  S
O672       Zr675   2.395       .  S
O672       Zr691   2.386       .  S
Zr673       O698   2.444       .  S
Zr673       O692   2.432       .  S
Zr673       O700   2.411       .  S
Zr673       O688   2.404       .  S
Zr673       O679   2.402       .  S
Zr673       O680   2.403       .  S
Zr673       O681   2.370       .  S
Zr673       O682   2.377       .  S
Zr674       O693   2.437       .  S
Zr674       O686   2.435       .  S
Zr674       O687   2.447       .  S
Zr674       O680   2.387       .  S
Zr674       O681   2.394       .  S
Zr675       O677   2.432       .  S
Zr675       O699   2.436       .  S
Zr675       O701   2.445       .  S
Zr675       O679   2.389       .  S
Zr675       O682   2.401       .  S
Zr676       O702   2.435       .  S
Zr676       O703   2.436       .  S
Zr676       O678   2.438       .  S
Zr676       O679   2.395       .  S
Zr676       O680   2.380       .  S
O677        H714   0.990       .  S
O678        H709   0.990       .  S
O678        H723   0.990       .  S
O680        H706   0.962       .  S
O681       Zr691   2.385       .  S
O682       Zr691   2.380       .  S
O682        H707   0.966       .  S
C683       C1186   1.481       .  S
C684       C1166   1.494       .  S
C685       C1646   1.466       .  S
O686        H722   0.990       .  S
O687        C689   1.286       .  A
O688        C689   1.278       .  A
C689       C1806   1.472       .  S
O690       Zr691   2.439       .  S
O690        H719   0.990       .  S
Zr691       O694   2.437       .  S
Zr691       O695   2.440       .  S
Zr691       O696   2.404       .  S
O692        C697   1.282       .  A
O693        H710   0.990       .  S
O693        H725   0.990       .  S
O694        H711   0.990       .  S
O695        H715   0.990       .  S
O695        H724   0.990       .  S
O696        C697   1.277       .  A
C697       C1737   1.467       .  S
O698        H717   0.990       .  S
O698        H721   0.990       .  S
O699        H713   0.990       .  S
O699        H720   0.990       .  S
O700        C704   1.278       .  A
O701        C704   1.286       .  A
O702        H712   0.990       .  S
O703        H716   0.990       .  S
C704       C1366   1.477       .  S
Zr727       O728   2.443       .  S
Zr727       O729   2.483       .  S
Zr727       O730   2.450       .  S
Zr727       O733   2.459       .  S
Zr727       O735   2.387       .  S
Zr727       O736   2.384       .  S
Zr727       O737   2.430       .  S
Zr727       O738   2.401       .  S
O728        H784   0.990       .  S
O728        H792   0.991       .  S
O729        C749   1.291       .  A
O730        C751   1.285       .  A
O731       Zr741   2.441       .  S
O731        C750   1.285       .  A
O732       Zr740   2.438       .  S
O732        C751   1.285       .  A
O733        C750   1.289       .  A
O734       Zr742   2.391       .  S
O734        C749   1.276       .  A
O735       Zr740   2.402       .  S
O735       Zr742   2.377       .  S
O736       Zr741   2.394       .  S
O736       Zr742   2.388       .  S
O736        H771   0.965       .  S
O737       Zr740   2.407       .  S
O737       Zr757   2.406       .  S
O737        H774   0.964       .  S
O738       Zr741   2.390       .  S
O738       Zr757   2.402       .  S
Zr739       O764   2.443       .  S
Zr739       O758   2.428       .  S
Zr739       O766   2.442       .  S
Zr739       O754   2.422       .  S
Zr739       O745   2.388       .  S
Zr739       O746   2.411       .  S
Zr739       O747   2.378       .  S
Zr739       O748   2.380       .  S
Zr740       O759   2.436       .  S
Zr740       O752   2.436       .  S
Zr740       O753   2.454       .  S
Zr740       O746   2.394       .  S
Zr740       O747   2.401       .  S
Zr741       O743   2.437       .  S
Zr741       O765   2.439       .  S
Zr741       O767   2.438       .  S
Zr741       O745   2.387       .  S
Zr741       O748   2.400       .  S
Zr742       O768   2.434       .  S
Zr742       O769   2.435       .  S
Zr742       O744   2.438       .  S
Zr742       O745   2.379       .  S
Zr742       O746   2.376       .  S
O743        H780   0.990       .  S
O744        H775   0.990       .  S
O744        H789   0.990       .  S
O746        H772   0.961       .  S
O747       Zr757   2.374       .  S
O748       Zr757   2.386       .  S
O748        H773   0.965       .  S
C749       C1177   1.495       .  S
C750       C1266   1.487       .  S
C751       C1377   1.481       .  S
O752        H788   0.990       .  S
O753        C755   1.288       .  A
O754        C755   1.281       .  A
C755       C1137   1.471       .  S
O756       Zr757   2.439       .  S
O756        H785   0.990       .  S
Zr757       O760   2.439       .  S
Zr757       O761   2.436       .  S
Zr757       O762   2.443       .  S
O758        C763   1.280       .  A
O759        H776   0.990       .  S
O759        H791   0.990       .  S
O760        H777   0.990       .  S
O761        H781   0.990       .  S
O761        H790   0.990       .  S
O762        C763   1.285       .  A
C763       C1226   1.491       .  S
O764        H783   0.990       .  S
O764        H787   0.989       .  S
O765        H779   0.990       .  S
O765        H786   0.990       .  S
O766        C770   1.285       .  A
O767        C770   1.285       .  A
O768        H778   0.990       .  S
O769        H782   0.990       .  S
C770       C1897   1.493       .  S
Zr793       O794   2.442       .  S
Zr793       O795   2.452       .  S
Zr793       O796   2.464       .  S
Zr793       O799   2.438       .  S
Zr793       O801   2.382       .  S
Zr793       O802   2.391       .  S
Zr793       O803   2.417       .  S
Zr793       O804   2.408       .  S
O794        H850   0.990       .  S
O794        H858   0.990       .  S
O795        C815   1.285       .  A
O796        C817   1.288       .  A
O797       Zr807   2.424       .  S
O797        C816   1.282       .  A
O798       Zr806   2.434       .  S
O798        C817   1.285       .  A
O799        C816   1.284       .  A
O800       Zr808   2.403       .  S
O800        C815   1.278       .  A
O801       Zr806   2.402       .  S
O801       Zr808   2.384       .  S
O802       Zr807   2.390       .  S
O802       Zr808   2.381       .  S
O802        H837   0.966       .  S
O803       Zr806   2.403       .  S
O803       Zr823   2.401       .  S
O803        H840   0.965       .  S
O804       Zr807   2.392       .  S
O804       Zr823   2.394       .  S
Zr805       O830   2.442       .  S
Zr805       O824   2.446       .  S
Zr805       O832   2.446       .  S
Zr805       O820   2.439       .  S
Zr805       O811   2.405       .  S
Zr805       O812   2.407       .  S
Zr805       O813   2.380       .  S
Zr805       O814   2.381       .  S
Zr806       O825   2.435       .  S
Zr806       O818   2.434       .  S
Zr806       O819   2.438       .  S
Zr806       O812   2.398       .  S
Zr806       O813   2.397       .  S
Zr807       O809   2.435       .  S
Zr807       O831   2.439       .  S
Zr807       O833   2.431       .  S
Zr807       O811   2.394       .  S
Zr807       O814   2.399       .  S
Zr808       O834   2.433       .  S
Zr808       O835   2.436       .  S
Zr808       O810   2.438       .  S
Zr808       O811   2.395       .  S
Zr808       O812   2.378       .  S
O809        H846   0.990       .  S
O810        H841   0.990       .  S
O810        H855   0.990       .  S
O812        H838   0.965       .  S
O813       Zr823   2.377       .  S
O814       Zr823   2.381       .  S
O814        H839   0.966       .  S
C815       C1117   1.479       .  S
C816       C1466   1.469       .  S
C817       C1997   1.494       .  S
O818        H854   0.990       .  S
O819        C821   1.286       .  A
O820        C821   1.286       .  A
C821       C1106   1.480       .  S
O822       Zr823   2.438       .  S
O822        H851   0.990       .  S
Zr823       O826   2.437       .  S
Zr823       O827   2.440       .  S
Zr823       O828   2.426       .  S
O824        C829   1.286       .  A
O825        H842   0.990       .  S
O825        H857   0.990       .  S
O826        H843   0.990       .  S
O827        H847   0.990       .  S
O827        H856   0.989       .  S
O828        C829   1.281       .  A
C829       C1526   1.483       .  S
O830        H849   0.990       .  S
O830        H853   0.990       .  S
O831        H845   0.989       .  S
O831        H852   0.990       .  S
O832        C836   1.285       .  A
O833        C836   1.283       .  A
O834        H844   0.989       .  S
O835        H848   0.990       .  S
C836       C1246   1.479       .  S
Zr859       O860   2.435       .  S
Zr859       O861   2.474       .  S
Zr859       O862   2.502       .  S
Zr859       O865   2.468       .  S
Zr859       O867   2.402       .  S
Zr859       O868   2.408       .  S
Zr859       O869   2.426       .  S
Zr859       O870   2.434       .  S
O860        H916   0.989       .  S
O860        H924   0.989       .  S
O861        C881   1.289       .  A
O862        C883   1.296       .  A
O863       Zr873   2.423       .  S
O863        C882   1.284       .  A
O864       Zr872   2.434       .  S
O864        C883   1.284       .  A
O865        C882   1.289       .  A
O866       Zr874   2.376       .  S
O866        C881   1.273       .  A
O867       Zr872   2.418       .  S
O867       Zr874   2.375       .  S
O868       Zr873   2.402       .  S
O868       Zr874   2.385       .  S
O868        H903   0.967       .  S
O869       Zr872   2.412       .  S
O869       Zr889   2.392       .  S
O869        H906   0.962       .  S
O870       Zr873   2.375       .  S
O870       Zr889   2.417       .  S
Zr871       O896   2.450       .  S
Zr871       O890   2.426       .  S
Zr871       O898   2.426   1_554  S
Zr871       O886   2.419       .  S
Zr871       O877   2.349       .  S
Zr871       O878   2.398       .  S
Zr871       O879   2.363       .  S
Zr871       O880   2.390       .  S
Zr872       O891   2.439       .  S
Zr872       O884   2.435       .  S
Zr872       O885   2.460       .  S
Zr872       O878   2.407       .  S
Zr872       O879   2.405       .  S
Zr873       O875   2.434   1_554  S
Zr873       O897   2.438       .  S
Zr873       O899   2.442   1_554  S
Zr873       O877   2.350       .  S
Zr873       O880   2.396       .  S
Zr874       O900   2.433       .  S
Zr874       O901   2.436       .  S
Zr874       O876   2.440       .  S
Zr874       O877   2.351       .  S
Zr874       O878   2.369       .  S
O875        H912   0.990       .  S
O876        H907   0.990       .  S
O876        H921   0.990       .  S
O878        H904   0.971       .  S
O879       Zr889   2.396       .  S
O880       Zr889   2.395       .  S
O880        H905   0.966   1_554  S
C881       C1126   1.484       .  S
C882       C1077   1.495       .  S
C883       C1157   1.525       .  S
O884        H920   0.990       .  S
O885        C887   1.290       .  A
O886        C887   1.284       .  A
C887       C1206   1.488       .  S
O888       Zr889   2.441       .  S
O888        H917   0.991       .  S
Zr889       O892   2.435       .  S
Zr889       O893   2.440   1_554  S
Zr889       O894   2.433       .  S
O890        C895   1.283   1_554  A
O891        H908   0.990       .  S
O891        H923   0.990       .  S
O892        H909   0.989       .  S
O893        H913   0.989       .  S
O893        H922   0.990       .  S
O894        C895   1.284   1_554  A
C895       C1146   1.492       .  S
O896        H915   0.991       .  S
O896        H919   0.989       .  S
O897        H911   0.990       .  S
O897        H918   0.989       .  S
O898        C902   1.281       .  A
O899        C902   1.283       .  A
O900        H910   0.990       .  S
O901        H914   0.990       .  S
C902       C1986   1.484       .  S
Zr925       O926   2.442       .  S
Zr925       O927   2.493       .  S
Zr925       O928   2.467       .  S
Zr925       O931   2.465       .  S
Zr925       O933   2.388       .  S
Zr925       O934   2.392       .  S
Zr925       O935   2.431       .  S
Zr925       O936   2.407       .  S
O926        H982   0.990       .  S
O926        H990   0.991       .  S
O927        C947   1.293       .  A
O928        C949   1.288       .  A
O929       Zr939   2.437       .  S
O929        C948   1.286       .  A
O930       Zr938   2.430       .  S
O930        C949   1.284       .  A
O931        C948   1.290       .  A
O932       Zr940   2.383       .  S
O932        C947   1.274       .  A
O933       Zr938   2.406       .  S
O933       Zr940   2.389       .  S
O934       Zr939   2.398       .  S
O934       Zr940   2.387       .  S
O934        H969   0.965       .  S
O935       Zr938   2.398       .  S
O935       Zr955   2.416       .  S
O935        H972   0.966       .  S
O936       Zr939   2.391       .  S
O936       Zr955   2.392       .  S
Zr937       O962   2.441       .  S
Zr937       O956   2.417       .  S
Zr937       O964   2.422       .  S
Zr937       O952   2.412       .  S
Zr937       O943   2.390       .  S
Zr937       O944   2.398       .  S
Zr937       O945   2.380       .  S
Zr937       O946   2.380       .  S
Zr938       O957   2.436       .  S
Zr938       O950   2.433       .  S
Zr938       O951   2.448       .  S
Zr938       O944   2.397       .  S
Zr938       O945   2.390       .  S
Zr939       O941   2.435       .  S
Zr939       O963   2.437       .  S
Zr939       O965   2.456       .  S
Zr939       O943   2.394       .  S
Zr939       O946   2.395       .  S
Zr940       O966   2.435       .  S
Zr940       O967   2.435   1_455  S
Zr940       O942   2.438       .  S
Zr940       O943   2.385       .  S
Zr940       O944   2.380       .  S
O941        H978   0.990       .  S
O942        H973   0.990       .  S
O942        H987   0.990       .  S
O944        H970   0.965       .  S
O945       Zr955   2.367       .  S
O946       Zr955   2.376       .  S
O946        H971   0.967       .  S
C947       C1066   1.485       .  S
C948       C1337   1.485       .  S
C949       C1326   1.490       .  S
O950        H986   0.990       .  S
O951        C953   1.288       .  A
O952        C953   1.281       .  A
C953       C1677   1.479       .  S
O954       Zr955   2.435       .  S
O954        H983   0.990       .  S
Zr955       O958   2.436       .  S
Zr955       O959   2.437       .  S
Zr955       O960   2.447       .  S
O956        C961   1.277       .  A
O957        H974   0.990       .  S
O957        H989   0.990       .  S
O958        H975   0.990       .  S
O959        H979   0.990       .  S
O959        H988   0.990       .  S
O960        C961   1.283       .  A
C961       C1406   1.517       .  S
O962        H981   0.990       .  S
O962        H985   0.990       .  S
O963        H977   0.989       .  S
O963        H984   0.990       .  S
O964        C968   1.282       .  A
O965        C968   1.288       .  A
O966        H976   0.990       .  S
O967        H980   0.990       .  S
C968       C1446   1.485       .  S
Zr991       O992   2.441       .  S
Zr991       O993   2.486       .  S
Zr991       O994   2.480       .  S
Zr991       O997   2.461       .  S
Zr991       O999   2.386       .  S
Zr991      O1000   2.390       .  S
Zr991      O1001   2.422       .  S
Zr991      O1002   2.421       .  S
O992       H1048   0.990       .  S
O992       H1056   0.990       .  S
O993       C1013   1.292       .  A
O994       C1015   1.292       .  A
O995      Zr1005   2.426       .  S
O995       C1014   1.284       .  A
O996      Zr1004   2.430       .  S
O996       C1015   1.284       .  A
O997       C1014   1.289       .  A
O998      Zr1006   2.396       .  S
O998       C1013   1.276       .  A
O999      Zr1004   2.404       .  S
O999      Zr1006   2.388       .  S
O1000     Zr1005   2.408       .  S
O1000     Zr1006   2.376       .  S
O1000      H1035   0.966       .  S
O1001     Zr1004   2.405       .  S
O1001     Zr1021   2.380       .  S
O1001      H1038   0.961       .  S
O1002     Zr1005   2.399       .  S
O1002     Zr1021   2.403       .  S
Zr1003     O1028   2.443       .  S
Zr1003     O1022   2.439       .  S
Zr1003     O1030   2.416       .  S
Zr1003     O1018   2.439       .  S
Zr1003     O1009   2.399       .  S
Zr1003     O1010   2.398       .  S
Zr1003     O1011   2.377       .  S
Zr1003     O1012   2.378       .  S
Zr1004     O1023   2.436       .  S
Zr1004     O1016   2.434       .  S
Zr1004     O1017   2.446       .  S
Zr1004     O1010   2.393       .  S
Zr1004     O1011   2.398       .  S
Zr1005     O1007   2.435       .  S
Zr1005     O1029   2.437       .  S
Zr1005     O1031   2.458       .  S
Zr1005     O1009   2.385       .  S
Zr1005     O1012   2.391       .  S
Zr1006     O1032   2.435       .  S
Zr1006     O1033   2.436   1_655  S
Zr1006     O1008   2.437       .  S
Zr1006     O1009   2.388       .  S
Zr1006     O1010   2.375       .  S
O1007      H1044   0.990       .  S
O1008      H1039   0.990       .  S
O1008      H1053   0.990       .  S
O1010      H1036   0.964       .  S
O1011     Zr1021   2.381       .  S
O1012     Zr1021   2.372       .  S
O1012      H1037   0.966       .  S
C1013      C1057   1.499       .  S
C1014      C1706   1.492       .  S
C1015      C1086   1.490       .  S
O1016      H1052   0.990       .  S
O1017      C1019   1.286       .  A
O1018      C1019   1.284       .  A
C1019      C1506   1.477       .  S
O1020     Zr1021   2.434       .  S
O1020      H1049   0.990       .  S
Zr1021     O1024   2.436       .  S
Zr1021     O1025   2.438       .  S
Zr1021     O1026   2.429       .  S
O1022      C1027   1.283       .  A
O1023      H1040   0.990       .  S
O1023      H1055   0.990       .  S
O1024      H1041   0.990       .  S
O1025      H1045   0.990       .  S
O1025      H1054   0.990       .  S
O1026      C1027   1.280       .  A
C1027      C1097   1.505       .  S
O1028      H1047   0.990       .  S
O1028      H1051   0.990       .  S
O1029      H1043   0.990       .  S
O1029      H1050   0.989       .  S
O1030      C1034   1.281       .  A
O1031      C1034   1.289       .  A
O1032      H1042   0.990   1_655  S
O1033      H1046   0.990       .  S
C1034      C1306   1.496       .  S
C1057      C1058   1.416       .  A
C1057      C1062   1.418       .  A
C1058      C1059   1.419   1_556  A
C1058     Br1070   1.929       .  S
C1059      C1060   1.415       .  A
C1059     Br1074   1.928       .  S
C1060      C1063   1.499   1_655  S
C1060      C1061   1.407   1_654  A
C1061      C1062   1.407   1_455  A
C1061     Br1069   1.934       .  S
C1062     Br1073   1.931   1_655  S
C1063      C1064   1.411       .  A
C1063      C1068   1.415       .  A
C1064      C1065   1.408       .  A
C1064     Br1075   1.932   1_454  S
C1065      C1066   1.414       .  A
C1065     Br1071   1.932       .  S
C1066      C1067   1.409       .  A
C1067      C1068   1.416       .  A
C1067     Br1076   1.928       .  S
C1068     Br1072   1.927       .  S
C1077      C1078   1.414       .  A
C1077      C1082   1.416       .  A
C1078      C1079   1.408       .  A
C1078     Br1090   1.932       .  S
C1079      C1080   1.410       .  A
C1079     Br1094   1.932       .  S
C1080      C1083   1.498       .  S
C1080      C1081   1.412       .  A
C1081      C1082   1.417       .  A
C1081     Br1089   1.929       .  S
C1082     Br1093   1.928       .  S
C1083      C1084   1.411       .  A
C1083      C1088   1.411   1_554  A
C1084      C1085   1.413       .  A
C1084     Br1095   1.928       .  S
C1085      C1086   1.413   1_554  A
C1085     Br1091   1.930       .  S
C1086      C1087   1.416       .  A
C1087      C1088   1.411       .  A
C1087     Br1096   1.931       .  S
C1088     Br1092   1.933       .  S
C1097      C1098   1.425       .  A
C1097      C1102   1.427       .  A
C1098      C1099   1.408       .  A
C1098     Br1110   1.934       .  S
C1099      C1100   1.405       .  A
C1099     Br1114   1.935       .  S
C1100      C1103   1.489       .  S
C1100      C1101   1.406       .  A
C1101      C1102   1.412       .  A
C1101     Br1109   1.934       .  S
C1102     Br1113   1.934       .  S
C1103      C1104   1.410       .  A
C1103      C1108   1.411       .  A
C1104      C1105   1.406       .  A
C1104     Br1115   1.932       .  S
C1105      C1106   1.412       .  A
C1105     Br1111   1.932       .  S
C1106      C1107   1.411       .  A
C1107      C1108   1.410       .  A
C1107     Br1116   1.929       .  S
C1108     Br1112   1.928       .  S
C1117      C1118   1.413       .  A
C1117      C1122   1.412       .  A
C1118      C1119   1.404       .  A
C1118     Br1130   1.931       .  S
C1119      C1120   1.406       .  A
C1119     Br1134   1.932       .  S
C1120      C1123   1.483       .  S
C1120      C1121   1.410       .  A
C1121      C1122   1.410       .  A
C1121     Br1129   1.928       .  S
C1122     Br1133   1.930       .  S
C1123      C1124   1.410       .  A
C1123      C1128   1.404       .  A
C1124      C1125   1.411       .  A
C1124     Br1135   1.929       .  S
C1125      C1126   1.413       .  A
C1125     Br1131   1.929       .  S
C1126      C1127   1.419       .  A
C1127      C1128   1.403       .  A
C1127     Br1136   1.933       .  S
C1128     Br1132   1.933       .  S
C1137      C1138   1.407       .  A
C1137      C1142   1.410       .  A
C1138      C1139   1.408       .  A
C1138     Br1150   1.926       .  S
C1139      C1140   1.410       .  A
C1139     Br1154   1.928       .  S
C1140      C1143   1.483       .  S
C1140      C1141   1.407       .  A
C1141      C1142   1.405       .  A
C1141     Br1149   1.930       .  S
C1142     Br1153   1.928       .  S
C1143      C1144   1.402       .  A
C1143      C1148   1.408       .  A
C1144      C1145   1.405       .  A
C1144     Br1155   1.931       .  S
C1145      C1146   1.419       .  A
C1145     Br1151   1.929   1_556  S
C1146      C1147   1.419       .  A
C1147      C1148   1.410       .  A
C1147     Br1156   1.931       .  S
C1148     Br1152   1.932       .  S
C1157      C1158   1.428       .  A
C1157      C1162   1.433       .  A
C1158      C1159   1.414       .  A
C1158     Br1170   1.920       .  S
C1159      C1160   1.403       .  A
C1159     Br1174   1.935       .  S
C1160      C1163   1.493       .  S
C1160      C1161   1.404       .  A
C1161      C1162   1.413       .  A
C1161     Br1169   1.934       .  S
C1162     Br1173   1.936       .  S
C1163      C1164   1.409       .  A
C1163      C1168   1.408       .  A
C1164      C1165   1.412       .  A
C1164     Br1175   1.929       .  S
C1165      C1166   1.418       .  A
C1165     Br1171   1.930       .  S
C1166      C1167   1.417       .  A
C1167      C1168   1.407       .  A
C1167     Br1176   1.931       .  S
C1168     Br1172   1.932       .  S
C1177      C1178   1.420       .  A
C1177      C1182   1.415       .  A
C1178      C1179   1.406       .  A
C1178     Br1190   1.933       .  S
C1179      C1180   1.405       .  A
C1179     Br1194   1.932       .  S
C1180      C1183   1.492       .  S
C1180      C1181   1.412       .  A
C1181      C1182   1.416       .  A
C1181     Br1189   1.928       .  S
C1182     Br1193   1.929       .  S
C1183      C1184   1.413       .  A
C1183      C1188   1.409       .  A
C1184      C1185   1.414       .  A
C1184     Br1195   1.927       .  S
C1185      C1186   1.410       .  A
C1185     Br1191   1.928       .  S
C1186      C1187   1.411       .  A
C1187      C1188   1.407       .  A
C1187     Br1196   1.930       .  S
C1188     Br1192   1.930       .  S
C1197      C1198   1.411       .  A
C1197      C1202   1.409       .  A
C1198      C1199   1.406       .  A
C1198     Br1210   1.931       .  S
C1199      C1200   1.409       .  A
C1199     Br1214   1.931       .  S
C1200      C1203   1.486       .  S
C1200      C1201   1.411       .  A
C1201      C1202   1.408       .  A
C1201     Br1209   1.928       .  S
C1202     Br1213   1.930       .  S
C1203      C1204   1.410       .  A
C1203      C1208   1.405       .  A
C1204      C1205   1.410       .  A
C1204     Br1215   1.931       .  S
C1205      C1206   1.415       .  A
C1205     Br1211   1.932       .  S
C1206      C1207   1.419       .  A
C1207      C1208   1.407       .  A
C1207     Br1216   1.931       .  S
C1208     Br1212   1.933       .  S
C1217      C1218   1.410       .  A
C1217      C1222   1.409       .  A
C1218      C1219   1.408       .  A
C1218     Br1230   1.931   1_556  S
C1219      C1220   1.411       .  A
C1219     Br1234   1.931       .  S
C1220      C1223   1.489       .  S
C1220      C1221   1.411       .  A
C1221      C1222   1.409       .  A
C1221     Br1229   1.929       .  S
C1222     Br1233   1.929       .  S
C1223      C1224   1.409       .  A
C1223      C1228   1.408       .  A
C1224      C1225   1.411       .  A
C1224     Br1235   1.930       .  S
C1225      C1226   1.415       .  A
C1225     Br1231   1.928       .  S
C1226      C1227   1.418       .  A
C1227      C1228   1.407       .  A
C1227     Br1236   1.930       .  S
C1228     Br1232   1.933       .  S
C1237      C1238   1.415       .  A
C1237      C1242   1.415       .  A
C1238      C1239   1.412       .  A
C1238     Br1250   1.929       .  S
C1239      C1240   1.408       .  A
C1239     Br1254   1.928       .  S
C1240      C1243   1.489   1_455  S
C1240      C1241   1.409       .  A
C1241      C1242   1.408       .  A
C1241     Br1249   1.933   1_455  S
C1242     Br1253   1.929       .  S
C1243      C1244   1.409       .  A
C1243      C1248   1.411       .  A
C1244      C1245   1.408       .  A
C1244     Br1255   1.929       .  S
C1245      C1246   1.411       .  A
C1245     Br1251   1.928       .  S
C1246      C1247   1.409       .  A
C1247      C1248   1.410       .  A
C1247     Br1256   1.929       .  S
C1248     Br1252   1.928   1_655  S
C1257      C1258   1.415       .  A
C1257      C1262   1.415       .  A
C1258      C1259   1.411       .  A
C1258     Br1270   1.930       .  S
C1259      C1260   1.410       .  A
C1259     Br1274   1.931       .  S
C1260      C1263   1.498       .  S
C1260      C1261   1.411       .  A
C1261      C1262   1.415       .  A
C1261     Br1269   1.929       .  S
C1262     Br1273   1.928       .  S
C1263      C1264   1.411       .  A
C1263      C1268   1.413       .  A
C1264      C1265   1.410       .  A
C1264     Br1275   1.931       .  S
C1265      C1266   1.411       .  A
C1265     Br1271   1.928       .  S
C1266      C1267   1.411       .  A
C1267      C1268   1.415       .  A
C1267     Br1276   1.928       .  S
C1268     Br1272   1.927       .  S
C1277      C1278   1.408       .  A
C1277      C1282   1.409       .  A
C1278      C1279   1.403       .  A
C1278     Br1290   1.930       .  S
C1279      C1280   1.410       .  A
C1279     Br1294   1.933       .  S
C1280      C1283   1.488       .  S
C1280      C1281   1.413       .  A
C1281      C1282   1.412       .  A
C1281     Br1289   1.928       .  S
C1282     Br1293   1.928       .  S
C1283      C1284   1.413       .  A
C1283      C1288   1.405       .  A
C1284      C1285   1.415       .  A
C1284     Br1295   1.928       .  S
C1285      C1286   1.414       .  A
C1285     Br1291   1.929       .  S
C1286      C1287   1.418       .  A
C1287      C1288   1.402       .  A
C1287     Br1296   1.932       .  S
C1288     Br1292   1.935       .  S
C1297      C1298   1.406       .  A
C1297      C1302   1.409       .  A
C1298      C1299   1.405       .  A
C1298     Br1310   1.929       .  S
C1299      C1300   1.411       .  A
C1299     Br1314   1.929       .  S
C1300      C1303   1.488       .  S
C1300      C1301   1.411       .  A
C1301      C1302   1.410       .  A
C1301     Br1309   1.928       .  S
C1302     Br1313   1.928       .  S
C1303      C1304   1.407   1_455  A
C1303      C1308   1.408       .  A
C1304      C1305   1.410       .  A
C1304     Br1315   1.932       .  S
C1305      C1306   1.422       .  A
C1305     Br1311   1.935       .  S
C1306      C1307   1.418       .  A
C1307      C1308   1.409   1_655  A
C1307     Br1316   1.928       .  S
C1308     Br1312   1.933       .  S
C1317      C1318   1.410       .  A
C1317      C1322   1.410       .  A
C1318      C1319   1.409       .  A
C1318     Br1330   1.926       .  S
C1319      C1320   1.411       .  A
C1319     Br1334   1.932       .  S
C1320      C1323   1.495       .  S
C1320      C1321   1.411       .  A
C1321      C1322   1.414       .  A
C1321     Br1329   1.926       .  S
C1322     Br1333   1.928       .  S
C1323      C1324   1.410       .  A
C1323      C1328   1.410       .  A
C1324      C1325   1.411       .  A
C1324     Br1335   1.928       .  S
C1325      C1326   1.412       .  A
C1325     Br1331   1.929       .  S
C1326      C1327   1.414       .  A
C1327      C1328   1.413       .  A
C1327     Br1336   1.928       .  S
C1328     Br1332   1.929       .  S
C1337      C1338   1.411       .  A
C1337      C1342   1.413       .  A
C1338      C1339   1.411       .  A
C1338     Br1350   1.929       .  S
C1339      C1340   1.410       .  A
C1339     Br1354   1.928   1_554  S
C1340      C1343   1.491       .  S
C1340      C1341   1.410       .  A
C1341      C1342   1.409       .  A
C1341     Br1349   1.933       .  S
C1342     Br1353   1.925       .  S
C1343      C1344   1.410   1_554  A
C1343      C1348   1.410       .  A
C1344      C1345   1.411       .  A
C1344     Br1355   1.930       .  S
C1345      C1346   1.414       .  A
C1345     Br1351   1.930       .  S
C1346      C1347   1.411       .  A
C1347      C1348   1.408   1_556  A
C1347     Br1356   1.931       .  S
C1348     Br1352   1.930       .  S
C1357      C1358   1.426       .  A
C1357      C1362   1.423       .  A
C1358      C1359   1.411       .  A
C1358     Br1370   1.932       .  S
C1359      C1360   1.406       .  A
C1359     Br1374   1.935       .  S
C1360      C1363   1.488       .  S
C1360      C1361   1.404       .  A
C1361      C1362   1.410       .  A
C1361     Br1369   1.933       .  S
C1362     Br1373   1.932       .  S
C1363      C1364   1.410       .  A
C1363      C1368   1.409       .  A
C1364      C1365   1.408       .  A
C1364     Br1375   1.928       .  S
C1365      C1366   1.409       .  A
C1365     Br1371   1.929       .  S
C1366      C1367   1.413       .  A
C1367      C1368   1.407       .  A
C1367     Br1376   1.933       .  S
C1368     Br1372   1.931       .  S
C1377      C1378   1.410       .  A
C1377      C1382   1.412       .  A
C1378      C1379   1.410       .  A
C1378     Br1390   1.928       .  S
C1379      C1380   1.412       .  A
C1379     Br1394   1.930       .  S
C1380      C1383   1.489       .  S
C1380      C1381   1.410       .  A
C1381      C1382   1.408       .  A
C1381     Br1389   1.931       .  S
C1382     Br1393   1.931       .  S
C1383      C1384   1.411       .  A
C1383      C1388   1.412       .  A
C1384      C1385   1.403       .  A
C1384     Br1395   1.934       .  S
C1385      C1386   1.408       .  A
C1385     Br1391   1.931       .  S
C1386      C1387   1.412       .  A
C1387      C1388   1.413       .  A
C1387     Br1396   1.928       .  S
C1388     Br1392   1.928       .  S
C1397      C1398   1.410       .  A
C1397      C1402   1.413       .  A
C1398      C1399   1.411       .  A
C1398     Br1410   1.927       .  S
C1399      C1400   1.411       .  A
C1399     Br1414   1.928       .  S
C1400      C1403   1.487       .  S
C1400      C1401   1.407       .  A
C1401      C1402   1.405       .  A
C1401     Br1409   1.932       .  S
C1402     Br1413   1.930       .  S
C1403      C1404   1.401       .  A
C1403      C1408   1.402       .  A
C1404      C1405   1.410       .  A
C1404     Br1415   1.939       .  S
C1405      C1406   1.437       .  A
C1405     Br1411   1.940       .  S
C1406      C1407   1.433       .  A
C1407      C1408   1.412       .  A
C1407     Br1416   1.938       .  S
C1408     Br1412   1.934       .  S
C1417      C1418   1.415       .  A
C1417      C1422   1.413       .  A
C1418      C1419   1.408       .  A
C1418     Br1430   1.929       .  S
C1419      C1420   1.407       .  A
C1419     Br1434   1.931       .  S
C1420      C1423   1.493       .  S
C1420      C1421   1.412       .  A
C1421      C1422   1.414       .  A
C1421     Br1429   1.928       .  S
C1422     Br1433   1.929       .  S
C1423      C1424   1.406       .  A
C1423      C1428   1.412       .  A
C1424      C1425   1.407       .  A
C1424     Br1435   1.930       .  S
C1425      C1426   1.417       .  A
C1425     Br1431   1.929       .  S
C1426      C1427   1.414       .  A
C1427      C1428   1.414       .  A
C1427     Br1436   1.930       .  S
C1428     Br1432   1.928       .  S
C1437      C1438   1.410       .  A
C1437      C1442   1.407       .  A
C1438      C1439   1.409   1_655  A
C1438     Br1450   1.925   1_655  S
C1439      C1440   1.410   1_455  A
C1439     Br1454   1.930       .  S
C1440      C1443   1.492   1_655  S
C1440      C1441   1.413       .  A
C1441      C1442   1.410       .  A
C1441     Br1449   1.929       .  S
C1442     Br1453   1.929       .  S
C1443      C1444   1.411       .  A
C1443      C1448   1.409       .  A
C1444      C1445   1.412       .  A
C1444     Br1455   1.929   1_455  S
C1445      C1446   1.412       .  A
C1445     Br1451   1.927       .  S
C1446      C1447   1.412       .  A
C1447      C1448   1.408       .  A
C1447     Br1456   1.929       .  S
C1448     Br1452   1.930       .  S
C1457      C1458   1.411   1_565  A
C1457      C1462   1.415       .  A
C1458      C1459   1.405       .  A
C1458     Br1470   1.930       .  S
C1459      C1460   1.408       .  A
C1459     Br1474   1.932       .  S
C1460      C1463   1.483       .  S
C1460      C1461   1.408       .  A
C1461      C1462   1.410   1_545  A
C1461     Br1469   1.930       .  S
C1462     Br1473   1.930       .  S
C1463      C1464   1.410       .  A
C1463      C1468   1.410       .  A
C1464      C1465   1.403       .  A
C1464     Br1475   1.932       .  S
C1465      C1466   1.407       .  A
C1465     Br1471   1.929       .  S
C1466      C1467   1.408       .  A
C1467      C1468   1.409       .  A
C1467     Br1476   1.928       .  S
C1468     Br1472   1.927       .  S
C1477      C1478   1.416       .  A
C1477      C1482   1.418   1_655  A
C1478      C1479   1.404   1_655  A
C1478     Br1490   1.921       .  S
C1479      C1480   1.404       .  A
C1479     Br1494   1.936   1_455  S
C1480      C1483   1.490       .  S
C1480      C1481   1.410       .  A
C1481      C1482   1.417       .  A
C1481     Br1489   1.927       .  S
C1482     Br1493   1.928       .  S
C1483      C1484   1.408       .  A
C1483      C1488   1.411       .  A
C1484      C1485   1.411       .  A
C1484     Br1495   1.928       .  S
C1485      C1486   1.414       .  A
C1485     Br1491   1.930       .  S
C1486      C1487   1.409       .  A
C1487      C1488   1.409       .  A
C1487     Br1496   1.930       .  S
C1488     Br1492   1.929       .  S
C1497      C1498   1.416       .  A
C1497      C1502   1.413       .  A
C1498      C1499   1.409       .  A
C1498     Br1510   1.931       .  S
C1499      C1500   1.407       .  A
C1499     Br1514   1.930   1_455  S
C1500      C1503   1.488   1_455  S
C1500      C1501   1.410       .  A
C1501      C1502   1.409       .  A
C1501     Br1509   1.931       .  S
C1502     Br1513   1.931       .  S
C1503      C1504   1.412       .  A
C1503      C1508   1.408       .  A
C1504      C1505   1.409       .  A
C1504     Br1515   1.928       .  S
C1505      C1506   1.407       .  A
C1505     Br1511   1.926       .  S
C1506      C1507   1.412       .  A
C1507      C1508   1.407       .  A
C1507     Br1516   1.929       .  S
C1508     Br1512   1.929   1_655  S
C1517      C1518   1.410       .  A
C1517      C1522   1.412   1_455  A
C1518      C1519   1.408       .  A
C1518     Br1530   1.930       .  S
C1519      C1520   1.411   1_455  A
C1519     Br1534   1.930       .  S
C1520      C1523   1.492       .  S
C1520      C1521   1.411       .  A
C1521      C1522   1.411       .  A
C1521     Br1529   1.929       .  S
C1522     Br1533   1.930       .  S
C1523      C1524   1.411       .  A
C1523      C1528   1.410       .  A
C1524      C1525   1.410       .  A
C1524     Br1535   1.929       .  S
C1525      C1526   1.410       .  A
C1525     Br1531   1.928       .  S
C1526      C1527   1.411       .  A
C1527      C1528   1.410       .  A
C1527     Br1536   1.928       .  S
C1528     Br1532   1.929       .  S
C1537      C1538   1.412       .  A
C1537      C1542   1.408       .  A
C1538      C1539   1.404       .  A
C1538     Br1550   1.928       .  S
C1539      C1540   1.408       .  A
C1539     Br1554   1.934       .  S
C1540      C1543   1.484       .  S
C1540      C1541   1.410       .  A
C1541      C1542   1.411       .  A
C1541     Br1549   1.925       .  S
C1542     Br1553   1.927       .  S
C1543      C1544   1.408       .  A
C1543      C1548   1.408       .  A
C1544      C1545   1.409       .  A
C1544     Br1555   1.929       .  S
C1545      C1546   1.414       .  A
C1545     Br1551   1.930   1_565  S
C1546      C1547   1.412       .  A
C1547      C1548   1.407       .  A
C1547     Br1556   1.930       .  S
C1548     Br1552   1.931       .  S
C1557      C1558   1.416       .  A
C1557      C1562   1.412       .  A
C1558      C1559   1.409   1_445  A
C1558     Br1570   1.932   1_545  S
C1559      C1560   1.408   1_655  A
C1559     Br1574   1.931       .  S
C1560      C1563   1.495   1_456  S
C1560      C1561   1.412   1_566  A
C1561      C1562   1.414   1_554  A
C1561     Br1569   1.928       .  S
C1562     Br1573   1.930       .  S
C1563      C1564   1.412       .  A
C1563      C1568   1.406       .  A
C1564      C1565   1.416       .  A
C1564     Br1575   1.928   1_565  S
C1565      C1566   1.415       .  A
C1565     Br1571   1.929       .  S
C1566      C1567   1.418       .  A
C1567      C1568   1.408       .  A
C1567     Br1576   1.930       .  S
C1568     Br1572   1.932   1_654  S
C1577      C1578   1.410       .  A
C1577      C1582   1.407       .  A
C1578      C1579   1.410       .  A
C1578     Br1590   1.928       .  S
C1579      C1580   1.411       .  A
C1579     Br1594   1.929       .  S
C1580      C1583   1.490       .  S
C1580      C1581   1.412       .  A
C1581      C1582   1.408       .  A
C1581     Br1589   1.930       .  S
C1582     Br1593   1.929       .  S
C1583      C1584   1.407       .  A
C1583      C1588   1.409       .  A
C1584      C1585   1.407       .  A
C1584     Br1595   1.932       .  S
C1585      C1586   1.418       .  A
C1585     Br1591   1.932       .  S
C1586      C1587   1.418       .  A
C1587      C1588   1.412       .  A
C1587     Br1596   1.928       .  S
C1588     Br1592   1.931       .  S
C1597      C1598   1.414       .  A
C1597      C1602   1.409   1_556  A
C1598      C1599   1.405       .  A
C1598     Br1610   1.927       .  S
C1599      C1600   1.407   1_556  A
C1599     Br1614   1.933       .  S
C1600      C1603   1.490       .  S
C1600      C1601   1.411       .  A
C1601      C1602   1.414       .  A
C1601     Br1609   1.925       .  S
C1602     Br1613   1.925       .  S
C1603      C1604   1.407       .  A
C1603      C1608   1.410       .  A
C1604      C1605   1.411       .  A
C1604     Br1615   1.930       .  S
C1605      C1606   1.417       .  A
C1605     Br1611   1.930       .  S
C1606      C1607   1.414       .  A
C1607      C1608   1.410       .  A
C1607     Br1616   1.929       .  S
C1608     Br1612   1.931   1_554  S
C1617      C1618   1.415       .  A
C1617      C1622   1.413       .  A
C1618      C1619   1.412       .  A
C1618     Br1630   1.930       .  S
C1619      C1620   1.409       .  A
C1619     Br1634   1.930       .  S
C1620      C1623   1.493   1_655  S
C1620      C1621   1.411       .  A
C1621      C1622   1.411       .  A
C1621     Br1629   1.929   1_655  S
C1622     Br1633   1.932       .  S
C1623      C1624   1.413       .  A
C1623      C1628   1.407       .  A
C1624      C1625   1.414       .  A
C1624     Br1635   1.928   1_455  S
C1625      C1626   1.410       .  A
C1625     Br1631   1.927       .  S
C1626      C1627   1.413       .  A
C1627      C1628   1.409       .  A
C1627     Br1636   1.925       .  S
C1628     Br1632   1.931       .  S
C1637      C1638   1.415       .  A
C1637      C1642   1.415       .  A
C1638      C1639   1.401       .  A
C1638     Br1650   1.929       .  S
C1639      C1640   1.404       .  A
C1639     Br1654   1.934       .  S
C1640      C1643   1.475       .  S
C1640      C1641   1.406       .  A
C1641      C1642   1.408       .  A
C1641     Br1649   1.930       .  S
C1642     Br1653   1.928       .  S
C1643      C1644   1.408       .  A
C1643      C1648   1.406       .  A
C1644      C1645   1.405       .  A
C1644     Br1655   1.929       .  S
C1645      C1646   1.408       .  A
C1645     Br1651   1.928       .  S
C1646      C1647   1.412       .  A
C1647      C1648   1.402       .  A
C1647     Br1656   1.931       .  S
C1648     Br1652   1.933       .  S
C1657      C1658   1.412       .  A
C1657      C1662   1.414       .  A
C1658      C1659   1.402       .  A
C1658     Br1670   1.922       .  S
C1659      C1660   1.404       .  A
C1659     Br1674   1.932       .  S
C1660      C1663   1.475       .  S
C1660      C1661   1.406       .  A
C1661      C1662   1.405       .  A
C1661     Br1669   1.930       .  S
C1662     Br1673   1.928       .  S
C1663      C1664   1.408       .  A
C1663      C1668   1.406       .  A
C1664      C1665   1.403       .  A
C1664     Br1675   1.930       .  S
C1665      C1666   1.406       .  A
C1665     Br1671   1.921       .  S
C1666      C1667   1.410       .  A
C1667      C1668   1.405       .  A
C1667     Br1676   1.928       .  S
C1668     Br1672   1.929       .  S
C1677      C1678   1.414       .  A
C1677      C1682   1.413       .  A
C1678      C1679   1.408       .  A
C1678     Br1690   1.930       .  S
C1679      C1680   1.408   1_455  A
C1679     Br1694   1.930       .  S
C1680      C1683   1.481       .  S
C1680      C1681   1.407       .  A
C1681      C1682   1.405   1_655  A
C1681     Br1689   1.932       .  S
C1682     Br1693   1.930       .  S
C1683      C1684   1.408       .  A
C1683      C1688   1.410       .  A
C1684      C1685   1.407       .  A
C1684     Br1695   1.928       .  S
C1685      C1686   1.409       .  A
C1685     Br1691   1.929       .  S
C1686      C1687   1.407       .  A
C1687      C1688   1.405       .  A
C1687     Br1696   1.924       .  S
C1688     Br1692   1.931       .  S
C1697      C1698   1.410       .  A
C1697      C1702   1.415       .  A
C1698      C1699   1.413       .  A
C1698     Br1710   1.927       .  S
C1699      C1700   1.411       .  A
C1699     Br1714   1.927       .  S
C1700      C1703   1.494       .  S
C1700      C1701   1.409       .  A
C1701      C1702   1.410       .  A
C1701     Br1709   1.931       .  S
C1702     Br1713   1.931       .  S
C1703      C1704   1.409       .  A
C1703      C1708   1.411       .  A
C1704      C1705   1.408       .  A
C1704     Br1715   1.932       .  S
C1705      C1706   1.414       .  A
C1705     Br1711   1.929       .  S
C1706      C1707   1.415       .  A
C1707      C1708   1.414       .  A
C1707     Br1716   1.930       .  S
C1708     Br1712   1.928       .  S
C1717      C1718   1.411       .  A
C1717      C1722   1.412       .  A
C1718      C1719   1.404       .  A
C1718     Br1730   1.932       .  S
C1719      C1720   1.408       .  A
C1719     Br1734   1.931       .  S
C1720      C1723   1.470       .  S
C1720      C1721   1.404       .  A
C1721      C1722   1.401       .  A
C1721     Br1729   1.932       .  S
C1722     Br1733   1.930       .  S
C1723      C1724   1.409       .  A
C1723      C1728   1.406       .  A
C1724      C1725   1.400       .  A
C1724     Br1735   1.931       .  S
C1725      C1726   1.405       .  A
C1725     Br1731   1.927       .  S
C1726      C1727   1.409       .  A
C1727      C1728   1.402       .  A
C1727     Br1736   1.929       .  S
C1728     Br1732   1.928       .  S
C1737      C1738   1.408       .  A
C1737      C1742   1.410       .  A
C1738      C1739   1.403       .  A
C1738     Br1750   1.931       .  S
C1739      C1740   1.409       .  A
C1739     Br1754   1.930       .  S
C1740      C1743   1.476       .  S
C1740      C1741   1.407       .  A
C1741      C1742   1.405       .  A
C1741     Br1749   1.930       .  S
C1742     Br1753   1.930       .  S
C1743      C1744   1.406       .  A
C1743      C1748   1.403       .  A
C1744      C1745   1.407       .  A
C1744     Br1755   1.931       .  S
C1745      C1746   1.416       .  A
C1745     Br1751   1.929       .  S
C1746      C1747   1.417       .  A
C1747      C1748   1.402       .  A
C1747     Br1756   1.928       .  S
C1748     Br1752   1.934       .  S
C1757      C1758   1.414       .  A
C1757      C1762   1.415       .  A
C1758      C1759   1.413   1_556  A
C1758     Br1770   1.930       .  S
C1759      C1760   1.412       .  A
C1759     Br1774   1.929       .  S
C1760      C1763   1.499       .  S
C1760      C1761   1.410   1_554  A
C1761      C1762   1.414       .  A
C1761     Br1769   1.929   1_556  S
C1762     Br1773   1.929       .  S
C1763      C1764   1.413       .  A
C1763      C1768   1.411       .  A
C1764      C1765   1.413       .  A
C1764     Br1775   1.930       .  S
C1765      C1766   1.412       .  A
C1765     Br1771   1.927       .  S
C1766      C1767   1.410       .  A
C1767      C1768   1.413       .  A
C1767     Br1776   1.928       .  S
C1768     Br1772   1.927   1_554  S
C1777      C1778   1.413       .  A
C1777      C1782   1.417       .  A
C1778      C1779   1.413       .  A
C1778     Br1790   1.930       .  S
C1779      C1780   1.411       .  A
C1779     Br1794   1.928       .  S
C1780      C1783   1.490       .  S
C1780      C1781   1.407       .  A
C1781      C1782   1.407       .  A
C1781     Br1789   1.932       .  S
C1782     Br1793   1.930       .  S
C1783      C1784   1.405       .  A
C1783      C1788   1.411       .  A
C1784      C1785   1.407       .  A
C1784     Br1795   1.933       .  S
C1785      C1786   1.420       .  A
C1785     Br1791   1.932       .  S
C1786      C1787   1.414       .  A
C1787      C1788   1.413       .  A
C1787     Br1796   1.931       .  S
C1788     Br1792   1.927       .  S
C1797      C1798   1.409       .  A
C1797      C1802   1.412       .  A
C1798      C1799   1.410       .  A
C1798     Br1810   1.926       .  S
C1799      C1800   1.411       .  A
C1799     Br1814   1.929       .  S
C1800      C1803   1.481       .  S
C1800      C1801   1.405       .  A
C1801      C1802   1.404       .  A
C1801     Br1809   1.932       .  S
C1802     Br1813   1.927       .  S
C1803      C1804   1.407       .  A
C1803      C1808   1.410       .  A
C1804      C1805   1.406       .  A
C1804     Br1815   1.930       .  S
C1805      C1806   1.412       .  A
C1805     Br1811   1.930       .  S
C1806      C1807   1.412       .  A
C1807      C1808   1.405       .  A
C1807     Br1816   1.934       .  S
C1808     Br1812   1.930       .  S
C1817      C1818   1.416       .  A
C1817      C1822   1.413       .  A
C1818      C1819   1.413       .  A
C1818     Br1830   1.930       .  S
C1819      C1820   1.411       .  A
C1819     Br1834   1.930       .  S
C1820      C1823   1.499       .  S
C1820      C1821   1.411       .  A
C1821      C1822   1.412       .  A
C1821     Br1829   1.927       .  S
C1822     Br1833   1.929       .  S
C1823      C1824   1.408       .  A
C1823      C1828   1.408       .  A
C1824      C1825   1.416   1_545  A
C1824     Br1835   1.929       .  S
C1825      C1826   1.422       .  A
C1825     Br1831   1.928       .  S
C1826      C1827   1.423   1_565  A
C1827      C1828   1.412       .  A
C1827     Br1836   1.929   1_545  S
C1828     Br1832   1.934       .  S
C1837      C1838   1.411       .  A
C1837      C1842   1.415       .  A
C1838      C1839   1.410       .  A
C1838     Br1850   1.929       .  S
C1839      C1840   1.411       .  A
C1839     Br1854   1.930       .  S
C1840      C1843   1.492       .  S
C1840      C1841   1.411       .  A
C1841      C1842   1.410       .  A
C1841     Br1849   1.931       .  S
C1842     Br1853   1.934       .  S
C1843      C1844   1.412       .  A
C1843      C1848   1.413       .  A
C1844      C1845   1.410       .  A
C1844     Br1855   1.928       .  S
C1845      C1846   1.409       .  A
C1845     Br1851   1.927   1_554  S
C1846      C1847   1.406       .  A
C1847      C1848   1.408       .  A
C1847     Br1856   1.927       .  S
C1848     Br1852   1.929       .  S
C1857      C1858   1.410       .  A
C1857      C1862   1.413       .  A
C1858      C1859   1.413       .  A
C1858     Br1870   1.928       .  S
C1859      C1860   1.414       .  A
C1859     Br1874   1.928       .  S
C1860      C1863   1.490       .  S
C1860      C1861   1.408       .  A
C1861      C1862   1.402       .  A
C1861     Br1869   1.933       .  S
C1862     Br1873   1.932       .  S
C1863      C1864   1.408       .  A
C1863      C1868   1.408       .  A
C1864      C1865   1.408       .  A
C1864     Br1875   1.935       .  S
C1865      C1866   1.420       .  A
C1865     Br1871   1.933       .  S
C1866      C1867   1.422       .  A
C1867      C1868   1.411       .  A
C1867     Br1876   1.932       .  S
C1868     Br1872   1.933       .  S
C1877      C1878   1.415       .  A
C1877      C1882   1.417       .  A
C1878      C1879   1.415       .  A
C1878     Br1890   1.930       .  S
C1879      C1880   1.412       .  A
C1879     Br1894   1.929       .  S
C1880      C1883   1.505       .  S
C1880      C1881   1.411       .  A
C1881      C1882   1.415       .  A
C1881     Br1889   1.928       .  S
C1882     Br1893   1.928       .  S
C1883      C1884   1.413       .  A
C1883      C1888   1.411       .  A
C1884      C1885   1.418       .  A
C1884     Br1895   1.928       .  S
C1885      C1886   1.416       .  A
C1885     Br1891   1.928       .  S
C1886      C1887   1.415       .  A
C1887      C1888   1.413       .  A
C1887     Br1896   1.930       .  S
C1888     Br1892   1.932       .  S
C1897      C1898   1.419       .  A
C1897      C1902   1.421       .  A
C1898      C1899   1.407       .  A
C1898     Br1910   1.933       .  S
C1899      C1900   1.407       .  A
C1899     Br1914   1.932       .  S
C1900      C1903   1.485       .  S
C1900      C1901   1.407       .  A
C1901      C1902   1.407       .  A
C1901     Br1909   1.933       .  S
C1902     Br1913   1.931       .  S
C1903      C1904   1.407       .  A
C1903      C1908   1.410       .  A
C1904      C1905   1.402       .  A
C1904     Br1915   1.935       .  S
C1905      C1906   1.415       .  A
C1905     Br1911   1.932       .  S
C1906      C1907   1.416       .  A
C1907      C1908   1.411       .  A
C1907     Br1916   1.930       .  S
C1908     Br1912   1.931       .  S
C1917      C1918   1.430       .  A
C1917      C1922   1.430       .  A
C1918      C1919   1.410       .  A
C1918     Br1930   1.938       .  S
C1919      C1920   1.404       .  A
C1919     Br1934   1.936       .  S
C1920      C1923   1.491       .  S
C1920      C1921   1.404       .  A
C1921      C1922   1.414       .  A
C1921     Br1929   1.933       .  S
C1922     Br1933   1.932       .  S
C1923      C1924   1.409       .  A
C1923      C1928   1.412       .  A
C1924      C1925   1.406       .  A
C1924     Br1935   1.931       .  S
C1925      C1926   1.410       .  A
C1925     Br1931   1.929       .  S
C1926      C1927   1.409       .  A
C1927      C1928   1.413       .  A
C1927     Br1936   1.927       .  S
C1928     Br1932   1.927       .  S
C1937      C1938   1.415       .  A
C1937      C1942   1.415       .  A
C1938      C1939   1.413       .  A
C1938     Br1950   1.929       .  S
C1939      C1940   1.411       .  A
C1939     Br1954   1.931       .  S
C1940      C1943   1.498       .  S
C1940      C1941   1.410       .  A
C1941      C1942   1.413       .  A
C1941     Br1949   1.930       .  S
C1942     Br1953   1.930   1_565  S
C1943      C1944   1.411       .  A
C1943      C1948   1.412       .  A
C1944      C1945   1.410       .  A
C1944     Br1955   1.930       .  S
C1945      C1946   1.411       .  A
C1945     Br1951   1.928       .  S
C1946      C1947   1.413       .  A
C1947      C1948   1.413       .  A
C1947     Br1956   1.929       .  S
C1948     Br1952   1.928       .  S
C1957      C1958   1.420       .  A
C1957      C1962   1.415       .  A
C1958      C1959   1.410       .  A
C1958     Br1970   1.932       .  S
C1959      C1960   1.407       .  A
C1959     Br1974   1.931       .  S
C1960      C1963   1.499   1_545  S
C1960      C1961   1.413   1_545  A
C1961      C1962   1.416   1_565  A
C1961     Br1969   1.929       .  S
C1962     Br1973   1.929   1_545  S
C1963      C1964   1.413       .  A
C1963      C1968   1.409       .  A
C1964      C1965   1.416       .  A
C1964     Br1975   1.928       .  S
C1965      C1966   1.412       .  A
C1965     Br1971   1.928       .  S
C1966      C1967   1.415       .  A
C1967      C1968   1.410       .  A
C1967     Br1976   1.931       .  S
C1968     Br1972   1.930   1_565  S
C1977      C1978   1.416       .  A
C1977      C1982   1.413       .  A
C1978      C1979   1.409       .  A
C1978     Br1990   1.928       .  S
C1979      C1980   1.406       .  A
C1979     Br1994   1.931       .  S
C1980      C1983   1.487       .  S
C1980      C1981   1.410       .  A
C1981      C1982   1.409       .  A
C1981     Br1989   1.930       .  S
C1982     Br1993   1.931       .  S
C1983      C1984   1.409       .  A
C1983      C1988   1.408       .  A
C1984      C1985   1.410       .  A
C1984     Br1995   1.930       .  S
C1985      C1986   1.414       .  A
C1985     Br1991   1.927       .  S
C1986      C1987   1.412       .  A
C1987      C1988   1.407       .  A
C1987     Br1996   1.929       .  S
C1988     Br1992   1.929       .  S
C1997      C1998   1.414       .  A
C1997      C2002   1.417       .  A
C1998      C1999   1.412       .  A
C1998     Br2010   1.930       .  S
C1999      C2000   1.411       .  A
C1999     Br2014   1.929       .  S
C2000      C2003   1.497       .  S
C2000      C2001   1.409       .  A
C2001      C2002   1.414       .  A
C2001     Br2009   1.929       .  S
C2002     Br2013   1.929       .  S
C2003      C2004   1.411       .  A
C2003      C2008   1.411       .  A
C2004      C2005   1.411       .  A
C2004     Br2015   1.930       .  S
C2005      C2006   1.411       .  A
C2005     Br2011   1.927       .  S
C2006      C2007   1.412       .  A
C2007      C2008   1.414       .  A
C2007     Br2016   1.927       .  S
C2008     Br2012   1.928       .  S
