geometry optimzed in LAMMPS
_audit_creation_date              2020-12-01 
_audit_creation_method            'lammps2cif' 
_symmetry_space_group_name_H-M    'P1' 
_symmetry_Int_Tables_number       1 
_symmetry_cell_setting            triclinic 
loop_ 
_symmetry_equiv_pos_as_xyz 
  x,y,z 
_cell_length_a                    83.12535275 
_cell_length_b                    83.19658813604835 
_cell_length_c                    44.661097074462006 
_cell_angle_alpha                 89.89897057946304 
_cell_angle_beta                  90.06336154596424 
_cell_angle_gamma                 89.89821255400393 
loop_ 
_atom_site_label 
_atom_site_type_symbol 
_atom_site_fract_x 
_atom_site_fract_y 
_atom_site_fract_z 
_atom_site_charge 
Zr1        Zr  0.89885403  0.37998063  0.40278719     2.17500
O2          O  0.91571663  0.39947768  0.37664387    -0.51800
O3          O  0.89479336  0.37193938  0.35057648    -0.75100
O4          O  0.92764832  0.37303654  0.40290009    -0.81800
O5          O  0.86385371  0.41032874  0.40956602    -0.83600
O6          O  0.93188997  0.35147596  0.43314079    -0.79200
O7          O  0.88979511  0.40779184  0.39438601    -0.90800
O8          O  0.87830396  0.35029608  0.34872405    -0.76800
O9          O  0.89764955  0.35134689  0.40599861    -0.86300
O10         O  0.87129298  0.37294379  0.39548438    -0.86000
O11         O  0.90828648  0.37333030  0.45255837    -0.72700
O12         O  0.88418735  0.39310797  0.44203819    -0.84900
Zr13       Zr  0.86397222  0.35045765  0.48736577     2.26400
Zr14       Zr  0.90622949  0.34447658  0.45573698     2.06300
Zr15       Zr  0.85673924  0.38570524  0.43506832     2.10000
Zr16       Zr  0.87013565  0.34437015  0.39931252     1.78800
O17         O  0.84521459  0.40689396  0.46592990    -0.93700
O18         O  0.88337957  0.31965405  0.38342346    -0.41500
O19         O  0.85498929  0.35712345  0.43796200    -0.78100
O20         O  0.87871927  0.33671629  0.44847340    -0.96800
O21         O  0.89145760  0.35746459  0.49489872    -0.90100
O22         O  0.86528426  0.37901286  0.48468637    -0.93000
C23         C  0.88697117  0.36108473  0.33619267     1.00800
C24         C  0.87669849  0.41594490  0.39760591     1.13700
C25         C  0.93690023  0.36251017  0.41529934     1.04500
O26         O  0.91444420  0.32098293  0.42708182    -0.95100
O27         O  0.90054429  0.32203660  0.48963920    -0.90900
O28         O  0.87462705  0.32482293  0.50469951    -0.84000
C29         C  0.88804195  0.31717067  0.50401634     1.11100
O30         O  0.91095184  0.40882871  0.48575260    -0.97100
Zr31       Zr  0.89287783  0.38595086  0.49120229     1.88900
O32         O  0.86640361  0.35994389  0.53886294    -0.73700
O33         O  0.92757044  0.34095039  0.49266293    -0.53000
O34         O  0.91735564  0.38179231  0.52029757    -0.97700
O35         O  0.88082913  0.41126446  0.50726058    -0.54900
O36         O  0.88423760  0.38048168  0.54167814    -0.74300
C37         C  0.87464000  0.37030928  0.55361982     0.98100
O38         O  0.84388405  0.33427533  0.51342602    -0.63100
O39         O  0.83769107  0.39049014  0.39448040    -0.57900
O40         O  0.83491676  0.35346091  0.47857823    -0.94600
O41         O  0.83081117  0.37623066  0.45154390    -0.93000
O42         O  0.84546186  0.34658758  0.37015923    -0.93300
O43         O  0.85153947  0.32183247  0.40344826    -0.92100
C44         C  0.82568933  0.36386086  0.46573455     1.16900
H45         H  0.86721391  0.37674797  0.37648132     0.32900
H46         H  0.87758255  0.32520390  0.44974367     0.43700
H47         H  0.85841462  0.38391716  0.49958159     0.37300
H48         H  0.91921599  0.37687360  0.45571913     0.33700
H49         H  0.87749262  0.31633029  0.36517654     0.25500
H50         H  0.93454865  0.33240829  0.48429838     0.31500
H51         H  0.91620582  0.37091033  0.52904113     0.37400
H52         H  0.83722416  0.35021691  0.38466416     0.31800
H53         H  0.83160702  0.38033113  0.39245244     0.30700
H54         H  0.83801394  0.41293145  0.45226733     0.32400
H55         H  0.87098993  0.40825245  0.51838520     0.31400
H56         H  0.85479627  0.31598081  0.42179670     0.35400
H57         H  0.84355551  0.32385256  0.50275670     0.28100
H58         H  0.92167921  0.39334350  0.36123476     0.32300
H59         H  0.91327913  0.41248551  0.50639542     0.35200
H60         H  0.82981737  0.39823755  0.40276167     0.27800
H61         H  0.84854580  0.33177448  0.53331612     0.40700
H62         H  0.90720842  0.31225068  0.43376828     0.30700
H63         H  0.89404945  0.32309064  0.37598028     0.38300
H64         H  0.87680608  0.41629390  0.48858075     0.30200
H65         H  0.93412927  0.35085442  0.49149724     0.30200
H66         H  0.92396024  0.40294732  0.39128756     0.30500
Zr67       Zr  0.90059928  0.38021159  0.90161471     2.17500
O68         O  0.91766310  0.39895478  0.87406358    -0.51800
O69         O  0.89661347  0.37198972  0.84936005    -0.75100
O70         O  0.92916214  0.37269409  0.90251524    -0.81800
O71         O  0.86611632  0.41071530  0.90649359    -0.83600
O72         O  0.93277630  0.35057978  0.93158632    -0.79200
O73         O  0.89256554  0.40836415  0.89458460    -0.90800
O74         O  0.87929960  0.35100062  0.84755227    -0.76800
O75         O  0.89880871  0.35166061  0.90516659    -0.86300
O76         O  0.87296518  0.37375231  0.89405285    -0.86000
O77         O  0.90982544  0.37362803  0.95148500    -0.72700
O78         O  0.88614702  0.39355651  0.94096490    -0.84900
Zr79       Zr  0.86516422  0.35100028  0.98640436     2.26400
Zr80       Zr  0.90723599  0.34492290  0.95500978     2.06300
Zr81       Zr  0.85864654  0.38666922  0.93366496     2.10000
Zr82       Zr  0.87116689  0.34524944  0.89818116     1.78800
O83         O  0.84795987  0.40939578  0.96162680    -0.93700
O84         O  0.88318189  0.32049350  0.87950392    -0.41500
O85         O  0.85636899  0.35813936  0.93702059    -0.78100
O86         O  0.87975061  0.33737292  0.94720301    -0.96800
O87         O  0.89264641  0.35778910  0.99433124    -0.90100
O88         O  0.86684475  0.37965392  0.98347218    -0.93000
C89         C  0.88846704  0.36135255  0.83499914     1.00800
C90         C  0.87934304  0.41641709  0.89621153     1.13700
C91         C  0.93807356  0.36175098  0.91446653     1.04500
O92         O  0.91528062  0.31986015  0.93124728    -0.95100
O93         O  0.90185680  0.32297696  0.98928681    -0.90900
O94         O  0.87547989  0.32465674  0.00199521    -0.84000
C95         C  0.88921725  0.31748199  0.00218475     1.11100
O96         O  0.91112887  0.41016212  0.98610036    -0.97100
Zr97       Zr  0.89449668  0.38620156  0.99029305     1.88900
O98         O  0.86791723  0.35987766  0.03838603    -0.73700
O99         O  0.92837003  0.34394881  0.99283691    -0.53000
O100        O  0.92017007  0.38333618  0.01609100    -0.97700
O101        O  0.88240065  0.41071128  0.01000279    -0.54900
O102        O  0.88736193  0.37887037  0.04083371    -0.74300
C103        C  0.87725598  0.36931106  0.05308813     0.98100
O104        O  0.84477244  0.33554130  0.01312850    -0.63100
O105        O  0.83950720  0.39006990  0.89273281    -0.57900
O106        O  0.83628772  0.35444942  0.97612411    -0.94600
O107        O  0.83272941  0.37816293  0.95170188    -0.93000
O108        O  0.84589284  0.34879024  0.87128124    -0.93300
O109        O  0.85342241  0.32218898  0.90403636    -0.92100
C110        C  0.82732802  0.36546585  0.96444036     1.16900
H111        H  0.86900684  0.37763920  0.87502880     0.32900
H112        H  0.87852609  0.32585157  0.94806864     0.43700
H113        H  0.86005240  0.38470822  0.99827361     0.37300
H114        H  0.92080535  0.37698467  0.95468632     0.33700
H115        H  0.87728727  0.31814600  0.86073686     0.25500
H116        H  0.93601746  0.33568950  0.98559092     0.31500
H117        H  0.91913615  0.37331451  0.02791663     0.37400
H118        H  0.83763285  0.34991933  0.88710577     0.31800
H119        H  0.83370171  0.37971611  0.89149413     0.30700
H120        H  0.83944236  0.41393848  0.94859607     0.32400
H121        H  0.87449724  0.40710949  0.02514850     0.31400
H122        H  0.84838435  0.32372010  0.92391618     0.35400
H123        H  0.84382127  0.32526407  0.00211025     0.28100
H124        H  0.92359580  0.39240479  0.85921802     0.32300
H125        H  0.91101480  0.41283497  0.96448412     0.35200
H126        H  0.83141588  0.39777427  0.90039980     0.27800
H127        H  0.84970135  0.33259335  0.03257879     0.40700
H128        H  0.91807047  0.32288564  0.91044766     0.30700
H129        H  0.89409026  0.32360504  0.87279898     0.38300
H130        H  0.87577879  0.41495399  0.99332841     0.30200
H131        H  0.93422972  0.35423950  0.99075169     0.30200
H132        H  0.92592247  0.40263336  0.88849653     0.30500
Zr133      Zr  0.90037232  0.11751226  0.23083261     2.17500
O134        O  0.91802531  0.09592188  0.24810950    -0.51800
O135        O  0.89744345  0.12430489  0.28363665    -0.75100
O136        O  0.92885961  0.12504648  0.23282917    -0.81800
O137        O  0.86494190  0.08821830  0.22513906    -0.83600
O138        O  0.93310159  0.14726136  0.20430854    -0.79200
O139        O  0.89086256  0.09024876  0.24074011    -0.90800
O140        O  0.88046061  0.14559817  0.28711411    -0.76800
O141        O  0.89936009  0.14616308  0.22955219    -0.86300
O142        O  0.87290793  0.12458481  0.23928928    -0.86000
O143        O  0.90961405  0.12495821  0.18172762    -0.72700
O144        O  0.88519024  0.10524753  0.19131581    -0.84900
Zr145      Zr  0.86540981  0.14908509  0.14883483     2.26400
Zr146      Zr  0.90781158  0.15376144  0.18018772     2.06300
Zr147      Zr  0.85785189  0.11284743  0.19933458     2.10000
Zr148      Zr  0.87195604  0.15319519  0.23727326     1.78800
O149        O  0.84662624  0.09061528  0.17076898    -0.93700
O150        O  0.88485504  0.17795734  0.25352334    -0.41500
O151        O  0.85652960  0.14148498  0.19790208    -0.78100
O152        O  0.88043566  0.16178212  0.18857876    -0.96800
O153        O  0.89269736  0.14177023  0.14054412    -0.90100
O154        O  0.86626508  0.12041334  0.14998216    -0.93000
C155        C  0.88936870  0.13465167  0.29878202     1.00800
C156        C  0.87767524  0.08238612  0.23730176     1.13700
C157        C  0.93800488  0.13601853  0.22178418     1.04500
O158        O  0.91795452  0.17730271  0.20639491    -0.95100
O159        O  0.90282450  0.17677635  0.14766842    -0.90900
O160        O  0.87677465  0.17474317  0.13294245    -0.84000
C161        C  0.89036865  0.18206252  0.13366888     1.11100
O162        O  0.91254685  0.09078029  0.14693916    -0.97100
Zr163      Zr  0.89381192  0.11325681  0.14271497     1.88900
O164        O  0.86765552  0.14098249  0.09626541    -0.73700
O165        O  0.92847325  0.15371424  0.14152546    -0.53000
O166        O  0.91824921  0.11703929  0.11353413    -0.97700
O167        O  0.88139060  0.08871118  0.12388133    -0.54900
O168        O  0.88561689  0.12054183  0.09300736    -0.74300
C169        C  0.87615451  0.13090396  0.08121894     0.98100
O170        O  0.84551532  0.16676391  0.12553990    -0.63100
O171        O  0.83784672  0.10984382  0.23890565    -0.57900
O172        O  0.83643108  0.14600389  0.15761103    -0.94600
O173        O  0.83200821  0.12247438  0.18216155    -0.93000
O174        O  0.84793779  0.15134241  0.26823336    -0.93300
O175        O  0.85285128  0.17534932  0.23381992    -0.92100
C176        C  0.82708549  0.13536809  0.16928595     1.16900
H177        H  0.86906717  0.12047055  0.25822426     0.32900
H178        H  0.87937134  0.17333569  0.18809540     0.43700
H179        H  0.85926921  0.11586591  0.13488984     0.37300
H180        H  0.92056870  0.12144476  0.17860893     0.33700
H181        H  0.88008585  0.18021850  0.27338230     0.25500
H182        H  0.93605884  0.16227796  0.14758792     0.31500
H183        H  0.91713772  0.12786838  0.10453054     0.37400
H184        H  0.84312902  0.14084208  0.26298488     0.31800
H185        H  0.83141995  0.10035689  0.23298489     0.30700
H186        H  0.83925602  0.08511793  0.18484494     0.32400
H187        H  0.87132624  0.09217898  0.11390210     0.31400
H188        H  0.84982617  0.17578464  0.21237822     0.35400
H189        H  0.84614407  0.17708037  0.13651307     0.28100
H190        H  0.92398743  0.10027838  0.26549483     0.32300
H191        H  0.91247065  0.08545662  0.12712722     0.35200
H192        H  0.84388347  0.10625018  0.25682797     0.27800
H193        H  0.84969348  0.16916147  0.10526141     0.40700
H194        H  0.90919733  0.18534785  0.20497511     0.30700
H195        H  0.89611806  0.17488012  0.25794883     0.38300
H196        H  0.87777655  0.08291552  0.14204296     0.30200
H197        H  0.93452389  0.14358256  0.14460847     0.30200
H198        H  0.92618320  0.09445939  0.23219339     0.30500
Zr199      Zr  0.89903793  0.11818304  0.73346959     2.17500
O200        O  0.91629414  0.09923401  0.76035255    -0.51800
O201        O  0.89473702  0.12712581  0.78493609    -0.75100
O202        O  0.92751063  0.12581250  0.73371143    -0.81800
O203        O  0.86501929  0.08726188  0.72890660    -0.83600
O204        O  0.93103845  0.14798925  0.70479148    -0.79200
O205        O  0.89105043  0.09036453  0.74324174    -0.90800
O206        O  0.87646854  0.14737485  0.78512660    -0.76800
O207        O  0.89652309  0.14668817  0.72902932    -0.86300
O208        O  0.87106439  0.12397799  0.73897806    -0.86000
O209        O  0.90906533  0.12459672  0.68422337    -0.72700
O210        O  0.88542743  0.10395112  0.69425663    -0.84900
Zr211      Zr  0.86457339  0.14536404  0.64508750     2.26400
Zr212      Zr  0.90572935  0.15320591  0.67958593     2.06300
Zr213      Zr  0.85762679  0.11036955  0.69900952     2.10000
Zr214      Zr  0.86856591  0.15235048  0.73383664     1.78800
O215        O  0.84910014  0.08684776  0.67080838    -0.93700
O216        O  0.87904430  0.17794242  0.75162701    -0.41500
O217        O  0.85488806  0.13877996  0.69426183    -0.78100
O218        O  0.87780601  0.15988779  0.68499801    -0.96800
O219        O  0.89239177  0.13919940  0.63999784    -0.90100
O220        O  0.86686031  0.11681330  0.64965416    -0.93000
C221        C  0.88601242  0.13759404  0.79848647     1.00800
C222        C  0.87801767  0.08211373  0.74110632     1.13700
C223        C  0.93637201  0.13682553  0.72202702     1.04500
O224        O  0.91392887  0.17812334  0.70361861    -0.95100
O225        O  0.89998372  0.17548329  0.64584314    -0.90900
O226        O  0.87463561  0.17158988  0.62846363    -0.84000
C227        C  0.88765983  0.17985811  0.63044376     1.11100
O228        O  0.91200974  0.08776129  0.65678707    -0.97100
Zr229      Zr  0.89486578  0.11083057  0.64561666     1.88900
O230        O  0.86872563  0.13531986  0.59393676    -0.73700
O231        O  0.92676443  0.15421690  0.64169162    -0.53000
O232        O  0.92055444  0.11441215  0.62026652    -0.97700
O233        O  0.88479029  0.08554137  0.62542760    -0.54900
O234        O  0.88841835  0.11645564  0.59441101    -0.74300
C235        C  0.87842760  0.12555900  0.58072599     0.98100
O236        O  0.84472629  0.16076726  0.61659378    -0.63100
O237        O  0.83656267  0.10627943  0.73623041    -0.57900
O238        O  0.83549474  0.14123957  0.65188594    -0.94600
O239        O  0.83178344  0.11860234  0.67955693    -0.93000
O240        O  0.84379562  0.14890285  0.76216546    -0.93300
O241        O  0.84884912  0.17349488  0.72467055    -0.92100
C242        C  0.82645813  0.13064479  0.66455942     1.16900
H243        H  0.86703042  0.12025719  0.75801821     0.32900
H244        H  0.87609593  0.17133565  0.68346310     0.43700
H245        H  0.86053892  0.11141801  0.63456668     0.37300
H246        H  0.92015705  0.12145331  0.68165024     0.33700
H247        H  0.87246383  0.18049211  0.76947566     0.25500
H248        H  0.93319832  0.16382318  0.64688653     0.31500
H249        H  0.91968233  0.12499904  0.61023653     0.37400
H250        H  0.83842249  0.13959351  0.75270287     0.31800
H251        H  0.83254704  0.09526675  0.73247054     0.30700
H252        H  0.83739454  0.08601360  0.67456377     0.32400
H253        H  0.87482820  0.08834499  0.61443055     0.31400
H254        H  0.84109537  0.16870840  0.71039681     0.35400
H255        H  0.84380595  0.17128565  0.62681523     0.28100
H256        H  0.92167590  0.10553322  0.77625605     0.32300
H257        H  0.91662586  0.08438986  0.63735430     0.35200
H258        H  0.84217277  0.10551973  0.75574270     0.27800
H259        H  0.84984105  0.16318754  0.59708324     0.40700
H260        H  0.90371153  0.18355161  0.70887243     0.30700
H261        H  0.88982113  0.17537094  0.75981862     0.38300
H262        H  0.88101987  0.07944719  0.64313772     0.30200
H263        H  0.93392802  0.14500758  0.64622822     0.30200
H264        H  0.92496089  0.09618548  0.74624567     0.30500
Zr265      Zr  0.35253734  0.35984120  0.10935942     2.17500
O266        O  0.33038135  0.34229484  0.12418202    -0.51800
O267        O  0.36089412  0.36100234  0.16205257    -0.75100
O268        O  0.35855373  0.33088723  0.10697394    -0.81800
O269        O  0.32512940  0.39693451  0.11198623    -0.83600
O270        O  0.38106399  0.32741012  0.07893858    -0.79200
O271        O  0.32709236  0.37084133  0.12673700    -0.90800
O272        O  0.38101864  0.37928177  0.16518771    -0.76800
O273        O  0.38117030  0.36064046  0.10717202    -0.86300
O274        O  0.35996217  0.38713593  0.11849922    -0.86000
O275        O  0.35915294  0.35156924  0.05915718    -0.72700
O276        O  0.33968049  0.37589684  0.07118590    -0.84900
Zr277      Zr  0.38363347  0.39503855  0.02693627     2.26400
Zr278      Zr  0.38794689  0.35288764  0.05712593     2.06300
Zr279      Zr  0.34803197  0.40299039  0.07962272     2.10000
Zr280      Zr  0.38848392  0.38790594  0.11559221     1.78800
O281        O  0.32445133  0.41284168  0.05286531    -0.93700
O282        O  0.41229103  0.37447630  0.13552813    -0.41500
O283        O  0.37677013  0.40381850  0.07661239    -0.78100
O284        O  0.39631106  0.37989532  0.06650275    -0.96800
O285        O  0.37552962  0.36808221  0.01787684    -0.90100
O286        O  0.35490778  0.39503428  0.02966104    -0.93000
C287        C  0.37103760  0.36946396  0.17706316     1.00800
C288        C  0.31980652  0.38447511  0.12593167     1.13700
C289        C  0.36937003  0.32201708  0.09460246     1.04500
O290        O  0.41132346  0.34170198  0.08268694    -0.95100
O291        O  0.41172643  0.35842667  0.02766135    -0.90900
O292        O  0.40998345  0.38434716  0.01218820    -0.84000
C293        C  0.41753706  0.37089547  0.01469224     1.11100
O294        O  0.32422954  0.34974823  0.02783131    -0.97100
Zr295      Zr  0.34689326  0.36796769  0.02157421     1.88900
O296        O  0.37588340  0.39214151  0.97428622    -0.73700
O297        O  0.38858482  0.33275803  0.01760016    -0.53000
O298        O  0.34626441  0.34441878  0.98932242    -0.97700
O299        O  0.32270694  0.38215695  0.00528553    -0.54900
O300        O  0.35403302  0.37595832  0.97149061    -0.74300
C301        C  0.36505783  0.38451010  0.95944310     0.98100
O302        O  0.40175862  0.41562322  0.00755739    -0.63100
O303        O  0.34711585  0.42459897  0.11635693    -0.57900
O304        O  0.37878129  0.42385623  0.03022462    -0.94600
O305        O  0.35709138  0.42863873  0.05983187    -0.93000
O306        O  0.38634676  0.41366634  0.14115461    -0.93300
O307        O  0.41347015  0.40313556  0.11423962    -0.92100
C308        C  0.36871514  0.43335153  0.04304077     1.16900
H309        H  0.35611048  0.39077792  0.13772393     0.32900
H310        H  0.40786496  0.38088211  0.06632741     0.43700
H311        H  0.35035039  0.40228152  0.01503105     0.37300
H312        H  0.35545388  0.34078848  0.05512355     0.33700
H313        H  0.41332861  0.37845705  0.15632596     0.25500
H314        H  0.37785356  0.32762610  0.01823362     0.31500
H315        H  0.35770260  0.34157571  0.98621971     0.37400
H316        H  0.38654916  0.41100406  0.16276510     0.31800
H317        H  0.33574426  0.42815643  0.11658986     0.30700
H318        H  0.31709280  0.40350946  0.05201924     0.32400
H319        H  0.31748236  0.37476730  0.99091133     0.31400
H320        H  0.41355930  0.40823427  0.09419031     0.35400
H321        H  0.41186602  0.41457347  0.01916924     0.28100
H322        H  0.33456579  0.33535140  0.14046835     0.32300
H323        H  0.32327884  0.34824243  0.04975667     0.35200
H324        H  0.34876641  0.41930555  0.13598535     0.27800
H325        H  0.40453508  0.41220809  0.98696794     0.40700
H326        H  0.41871006  0.35090839  0.08540825     0.30700
H327        H  0.40913773  0.36307182  0.13779578     0.38300
H328        H  0.32657062  0.39115242  0.99268529     0.30200
H329        H  0.38858815  0.33899144  0.99869594     0.30200
H330        H  0.32844635  0.33500461  0.10704443     0.30500
Zr331      Zr  0.35203793  0.36229942  0.61077037     2.17500
O332        O  0.33108526  0.34580831  0.63361528    -0.51800
O333        O  0.36079348  0.36485202  0.66281682    -0.75100
O334        O  0.35739888  0.33310008  0.60893443    -0.81800
O335        O  0.32272387  0.39844953  0.60532366    -0.83600
O336        O  0.37985943  0.32911976  0.58093464    -0.79200
O337        O  0.32592821  0.37335519  0.62460085    -0.90800
O338        O  0.38245153  0.38131682  0.66483850    -0.76800
O339        O  0.38068494  0.36357092  0.60908250    -0.86300
O340        O  0.35899589  0.38989481  0.61760240    -0.86000
O341        O  0.35875267  0.35291776  0.56135106    -0.72700
O342        O  0.33912268  0.37714082  0.57111860    -0.84900
Zr343      Zr  0.38288542  0.39620526  0.52574839     2.26400
Zr344      Zr  0.38760860  0.35468855  0.55966563     2.06300
Zr345      Zr  0.34697024  0.40460270  0.57718385     2.10000
Zr346      Zr  0.38748778  0.39120371  0.61498246     1.78800
O347        O  0.32439857  0.41538360  0.54865959    -0.93700
O348        O  0.41364170  0.38036503  0.62934383    -0.41500
O349        O  0.37569863  0.40606700  0.57455002    -0.78100
O350        O  0.39563297  0.38211609  0.56673885    -0.96800
O351        O  0.37517245  0.36891608  0.51908068    -0.90100
O352        O  0.35416311  0.39556150  0.52803615    -0.93000
C353        C  0.37186636  0.37235051  0.67721210     1.00800
C354        C  0.31784879  0.38640292  0.62087590     1.13700
C355        C  0.36807185  0.32396225  0.59672100     1.04500
O356        O  0.41020840  0.34409578  0.58830923    -0.95100
O357        O  0.41136837  0.36002732  0.52987717    -0.90900
O358        O  0.40988638  0.38590068  0.51387833    -0.84000
C359        C  0.41731207  0.37236989  0.51666008     1.11100
O360        O  0.32287633  0.35100461  0.52592713    -0.97100
Zr361      Zr  0.34654738  0.36818362  0.52228728     1.88900
O362        O  0.37509018  0.39135031  0.47358693    -0.73700
O363        O  0.39095429  0.33454649  0.52063371    -0.53000
O364        O  0.34921659  0.34271135  0.49586336    -0.97700
O365        O  0.32187896  0.38116793  0.50509568    -0.54900
O366        O  0.35308162  0.37535129  0.47166435    -0.74300
C367        C  0.36422377  0.38353790  0.45919326     0.98100
O368        O  0.39915476  0.41581826  0.49864972    -0.63100
O369        O  0.34492096  0.42518753  0.61580280    -0.57900
O370        O  0.37813091  0.42527082  0.52883490    -0.94600
O371        O  0.35594122  0.43014269  0.55705187    -0.93000
O372        O  0.38243575  0.41530192  0.64442855    -0.93300
O373        O  0.40958893  0.41038301  0.61475612    -0.92100
C374        C  0.36775095  0.43483685  0.54073727     1.16900
H375        H  0.35511168  0.39383389  0.63660742     0.32900
H376        H  0.40717566  0.38326925  0.56697772     0.43700
H377        H  0.34947560  0.40234579  0.51275331     0.37300
H378        H  0.35503981  0.34212736  0.55768725     0.33700
H379        H  0.41426871  0.38186907  0.65129970     0.25500
H380        H  0.39758487  0.32598208  0.52992038     0.31500
H381        H  0.35958184  0.34350260  0.48507470     0.37400
H382        H  0.37854227  0.42335336  0.62974988     0.31800
H383        H  0.33584225  0.43209567  0.60935048     0.30700
H384        H  0.31941629  0.42345511  0.56203524     0.32400
H385        H  0.32535699  0.38960157  0.49086030     0.31400
H386        H  0.40752797  0.41726710  0.59705105     0.35400
H387        H  0.40931866  0.41680660  0.51008479     0.28100
H388        H  0.33644126  0.33964783  0.64980499     0.32300
H389        H  0.31876309  0.34988068  0.50521000     0.35200
H390        H  0.34089389  0.41959591  0.63387509     0.27800
H391        H  0.40222963  0.41052613  0.47964626     0.40700
H392        H  0.41542691  0.33624580  0.57478600     0.30700
H393        H  0.41262401  0.36860862  0.62669508     0.38300
H394        H  0.31786224  0.38712873  0.52273329     0.30200
H395        H  0.38017855  0.32966466  0.51828963     0.30200
H396        H  0.32796474  0.33772467  0.61843858     0.30500
Zr397      Zr  0.15241418  0.36136097  0.27729507     2.17500
O398        O  0.17465538  0.34414518  0.26147718    -0.51800
O399        O  0.14425590  0.36425104  0.22484419    -0.75100
O400        O  0.14606545  0.33249309  0.27680720    -0.81800
O401        O  0.18109565  0.39747269  0.27935015    -0.83600
O402        O  0.12398886  0.32846338  0.30587305    -0.79200
O403        O  0.17763259  0.37257199  0.25955529    -0.90800
O404        O  0.12388308  0.38238768  0.22267342    -0.76800
O405        O  0.12379308  0.36278467  0.27908189    -0.86300
O406        O  0.14574387  0.38905054  0.27088738    -0.86000
O407        O  0.14532811  0.35181340  0.32645238    -0.72700
O408        O  0.16544859  0.37575841  0.31724270    -0.84900
Zr409      Zr  0.12170393  0.39501930  0.36226281     2.26400
Zr410      Zr  0.11647914  0.35378966  0.32832002     2.06300
Zr411      Zr  0.15793965  0.40335010  0.31142739     2.10000
Zr412      Zr  0.11725829  0.39047762  0.27304051     1.78800
O413        O  0.18077630  0.41140784  0.34208508    -0.93700
O414        O  0.09243280  0.37850746  0.25451119    -0.41500
O415        O  0.12919465  0.40491943  0.31360812    -0.78100
O416        O  0.10887000  0.38132146  0.32124111    -0.96800
O417        O  0.12896264  0.36762265  0.36918426    -0.90100
O418        O  0.15040023  0.39413737  0.36022916    -0.93000
C419        C  0.13403685  0.37290447  0.21031514     1.00800
C420        C  0.18561139  0.38567116  0.26271119     1.13700
C421        C  0.13543908  0.32339420  0.28914357     1.04500
O422        O  0.09347992  0.34451043  0.29934435    -0.95100
O423        O  0.09272835  0.35930522  0.35851802    -0.90900
O424        O  0.09522974  0.38468304  0.37639254    -0.84000
C425        C  0.08732246  0.37155343  0.37288623     1.11100
O426        O  0.18105225  0.34916510  0.36269186    -0.97100
Zr427      Zr  0.15759019  0.36664306  0.36584697     1.88900
O428        O  0.12975825  0.39124484  0.41454976    -0.73700
O429        O  0.11362612  0.33295786  0.36638543    -0.53000
O430        O  0.15436666  0.34126767  0.39242467    -0.97700
O431        O  0.18238901  0.37859006  0.38458346    -0.54900
O432        O  0.15115118  0.37434646  0.41613919    -0.74300
C433        C  0.14054675  0.38316571  0.42876070     0.98100
O434        O  0.10368576  0.41568836  0.38183893    -0.63100
O435        O  0.16139351  0.42581038  0.27690242    -0.57900
O436        O  0.12699378  0.42366566  0.36273554    -0.94600
O437        O  0.14843466  0.42861154  0.33262093    -0.93000
O438        O  0.12171957  0.41584569  0.24707101    -0.93300
O439        O  0.09411436  0.40844078  0.27465884    -0.92100
C440        C  0.13708375  0.43319750  0.35023543     1.16900
H441        H  0.14973411  0.39312267  0.25203053     0.32900
H442        H  0.09733445  0.38264354  0.32146882     0.43700
H443        H  0.15504889  0.40078732  0.37567347     0.37300
H444        H  0.14888333  0.34089864  0.32962411     0.33700
H445        H  0.09119570  0.38274763  0.23390392     0.25500
H446        H  0.10495622  0.32589512  0.35881714     0.31500
H447        H  0.14316241  0.34146890  0.39990568     0.37400
H448        H  0.11609482  0.41466214  0.22764561     0.31800
H449        H  0.17313423  0.42773279  0.27600389     0.30700
H450        H  0.18753897  0.41799560  0.32859717     0.32400
H451        H  0.17906338  0.38837637  0.39554147     0.31400
H452        H  0.09640535  0.41581191  0.29151046     0.35400
H453        H  0.09399986  0.41544379  0.36890768     0.28100
H454        H  0.17052322  0.33755926  0.24470408     0.32300
H455        H  0.17929289  0.34272663  0.34435665     0.35200
H456        H  0.15858604  0.42148180  0.25694238     0.27800
H457        H  0.10003731  0.41177835  0.40165195     0.40700
H458        H  0.09178876  0.33325230  0.30582593     0.30700
H459        H  0.09498537  0.36698142  0.25172756     0.38300
H460        H  0.18795358  0.38265264  0.36651486     0.30200
H461        H  0.12352267  0.32637059  0.36488118     0.30200
H462        H  0.17651970  0.33649641  0.27814773     0.30500
Zr463      Zr  0.15221676  0.35958284  0.77676935     2.17500
O464        O  0.17463833  0.34237404  0.76183592    -0.51800
O465        O  0.14346767  0.36073150  0.72466614    -0.75100
O466        O  0.14586771  0.33078650  0.77687268    -0.81800
O467        O  0.17994616  0.39657975  0.77498395    -0.83600
O468        O  0.12411588  0.32683166  0.80678072    -0.79200
O469        O  0.17680076  0.37129076  0.75673534    -0.90800
O470        O  0.12273334  0.37840267  0.72184495    -0.76800
O471        O  0.12356215  0.36038160  0.77953396    -0.86300
O472        O  0.14483019  0.38694801  0.76857198    -0.86000
O473        O  0.14580186  0.35059832  0.82663343    -0.72700
O474        O  0.16537078  0.37505626  0.81514339    -0.84900
Zr475      Zr  0.12183154  0.39411016  0.86024572     2.26400
Zr476      Zr  0.11694914  0.35214559  0.82953598     2.06300
Zr477      Zr  0.15709948  0.40234852  0.80753179     2.10000
Zr478      Zr  0.11636112  0.38773441  0.77164229     1.78800
O479        O  0.18010115  0.41240278  0.83562515    -0.93700
O480        O  0.09157353  0.37522207  0.75431952    -0.41500
O481        O  0.12842564  0.40328938  0.81066230    -0.78100
O482        O  0.10868537  0.37932599  0.82072352    -0.96800
O483        O  0.12970058  0.36700215  0.86870562    -0.90100
O484        O  0.15050427  0.39374960  0.85726016    -0.93000
C485        C  0.13293825  0.36881418  0.70986550     1.00800
C486        C  0.18449870  0.38464011  0.75877001     1.13700
C487        C  0.13533176  0.32172976  0.78953510     1.04500
O488        O  0.09345640  0.34125813  0.80411013    -0.95100
O489        O  0.09365478  0.35791987  0.86079167    -0.90900
O490        O  0.09556548  0.38393465  0.87534784    -0.84000
C491        C  0.08802741  0.37051188  0.87374754     1.11100
O492        O  0.18201581  0.34951808  0.85807544    -0.97100
Zr493      Zr  0.15828442  0.36644097  0.86452383     1.88900
O494        O  0.13000202  0.39060819  0.91256555    -0.73700
O495        O  0.11553099  0.33194159  0.86900361    -0.53000
O496        O  0.15678667  0.34133273  0.89254127    -0.97700
O497        O  0.18216915  0.37987088  0.88399696    -0.54900
O498        O  0.15113179  0.37341934  0.91497844    -0.74300
C499        C  0.14049060  0.38236617  0.92722869     0.98100
O500        O  0.10421767  0.41454762  0.88182346    -0.63100
O501        O  0.15883198  0.42371221  0.77024434    -0.57900
O502        O  0.12632015  0.42297308  0.85796670    -0.94600
O503        O  0.14714394  0.42791989  0.82646722    -0.93000
O504        O  0.11896511  0.41158546  0.74039776    -0.93300
O505        O  0.09378305  0.40624582  0.77611953    -0.92100
C506        C  0.13590679  0.43256319  0.84423471     1.16900
H507        H  0.14850457  0.39067565  0.74925143     0.32900
H508        H  0.09712690  0.38039922  0.82122298     0.43700
H509        H  0.15514762  0.40079426  0.87209534     0.37300
H510        H  0.14951635  0.33974520  0.83000059     0.33700
H511        H  0.08910358  0.38068920  0.73513778     0.25500
H512        H  0.10736011  0.32417544  0.86191688     0.31500
H513        H  0.14582411  0.34123157  0.90117700     0.37400
H514        H  0.12544058  0.41913031  0.75254759     0.31800
H515        H  0.16981271  0.42814120  0.77251520     0.30700
H516        H  0.17940306  0.42424784  0.83385937     0.32400
H517        H  0.17816466  0.38908672  0.89584649     0.31400
H518        H  0.09412420  0.40989039  0.79720772     0.35400
H519        H  0.09425975  0.41445694  0.86961787     0.28100
H520        H  0.17069180  0.33592809  0.74471830     0.32300
H521        H  0.18708886  0.34878854  0.87810761     0.35200
H522        H  0.15896238  0.41820571  0.75061631     0.27800
H523        H  0.10098917  0.41044734  0.90176085     0.40700
H524        H  0.08578035  0.35034873  0.80290285     0.30700
H525        H  0.09474392  0.36419605  0.74842994     0.38300
H526        H  0.18729358  0.38478871  0.86621725     0.30200
H527        H  0.12584969  0.32602202  0.86775835     0.30200
H528        H  0.17620860  0.33459432  0.77839623     0.30500
Zr529      Zr  0.10569204  0.61897206  0.40205123     2.17500
O530        O  0.08890556  0.59961807  0.37540783    -0.51800
O531        O  0.11025873  0.62681077  0.34965084    -0.75100
O532        O  0.07689974  0.62558440  0.40261377    -0.81800
O533        O  0.14025252  0.58848692  0.41121179    -0.83600
O534        O  0.07243778  0.64713866  0.43262764    -0.79200
O535        O  0.11452651  0.59109352  0.39473222    -0.90800
O536        O  0.12697081  0.64828225  0.34820940    -0.76800
O537        O  0.10660061  0.64760961  0.40549339    -0.86300
O538        O  0.13324914  0.62603918  0.39535640    -0.86000
O539        O  0.09612897  0.62550612  0.45169323    -0.72700
O540        O  0.12015327  0.60590044  0.44176558    -0.84900
Zr541      Zr  0.13993272  0.64873287  0.48755454     2.26400
Zr542      Zr  0.09791842  0.65432789  0.45524110     2.06300
Zr543      Zr  0.14759325  0.61336924  0.43546188     2.10000
Zr544      Zr  0.13412162  0.65462035  0.39907605     1.78800
O545        O  0.15942750  0.59262880  0.46717218    -0.93700
O546        O  0.12072949  0.67863788  0.37995297    -0.41500
O547        O  0.14899544  0.64195832  0.43826164    -0.78100
O548        O  0.12533097  0.66224508  0.44803658    -0.96800
O549        O  0.11251227  0.64149469  0.49489673    -0.90100
O550        O  0.13886334  0.62011466  0.48484572    -0.93000
C551        C  0.11838877  0.63753849  0.33543601     1.00800
C552        C  0.12750494  0.58288627  0.39886546     1.13700
C553        C  0.06756117  0.63594651  0.41510926     1.04500
O554        O  0.08948014  0.67833702  0.42821647    -0.95100
O555        O  0.10321221  0.67710043  0.48820323    -0.90900
O556        O  0.12921009  0.67471288  0.50312227    -0.84000
C557        C  0.11574419  0.68229636  0.50204246     1.11100
O558        O  0.09311229  0.59012541  0.48675011    -0.97100
Zr559      Zr  0.11130508  0.61299273  0.49070505     1.88900
O560        O  0.13806723  0.63889284  0.53916507    -0.73700
O561        O  0.07684487  0.65653247  0.49295520    -0.53000
O562        O  0.08655499  0.61673725  0.51904729    -0.97700
O563        O  0.12332141  0.58763872  0.50686871    -0.54900
O564        O  0.12022990  0.61834252  0.54074638    -0.74300
C565        C  0.12990610  0.62817992  0.55327848     0.98100
O566        O  0.15976336  0.66470205  0.51472553    -0.63100
O567        O  0.16623818  0.60756740  0.39481633    -0.57900
O568        O  0.16882709  0.64646149  0.47765070    -0.94600
O569        O  0.17341602  0.62384756  0.45058818    -0.93000
O570        O  0.15982489  0.65288966  0.37313997    -0.93300
O571        O  0.15115880  0.67825284  0.40415743    -0.92100
C572        C  0.17825083  0.63642414  0.46448110     1.16900
H573        H  0.13746143  0.62220158  0.37652358     0.32900
H574        H  0.12643094  0.67377652  0.44887343     0.43700
H575        H  0.14566296  0.61520566  0.49985764     0.37300
H576        H  0.08526121  0.62182074  0.45487636     0.33700
H577        H  0.12717323  0.68190903  0.36233410     0.25500
H578        H  0.06961296  0.66512165  0.48548053     0.31500
H579        H  0.08728154  0.62778192  0.52713620     0.37400
H580        H  0.15862008  0.64384890  0.35893634     0.31800
H581        H  0.16919899  0.61823247  0.38667821     0.30700
H582        H  0.16520216  0.58544965  0.45315466     0.32400
H583        H  0.13233163  0.59062865  0.52024363     0.31400
H584        H  0.15441840  0.67831063  0.42549034     0.35400
H585        H  0.16027002  0.67517665  0.50419270     0.28100
H586        H  0.08284467  0.60586019  0.36021878     0.32300
H587        H  0.09171162  0.58606510  0.50744540     0.35200
H588        H  0.17614540  0.60361016  0.40472801     0.27800
H589        H  0.15483391  0.66713848  0.53438170     0.40700
H590        H  0.07898566  0.68125024  0.43717984     0.30700
H591        H  0.11046777  0.67475687  0.37134331     0.38300
H592        H  0.12858722  0.58330234  0.48871838     0.30200
H593        H  0.07047181  0.64653682  0.49116434     0.30200
H594        H  0.08073447  0.59591382  0.38998549     0.30500
Zr595      Zr  0.10475195  0.61759088  0.90311196     2.17500
O596        O  0.08704947  0.59745179  0.88084421    -0.51800
O597        O  0.10853884  0.62358381  0.84989148    -0.75100
O598        O  0.07637807  0.62500099  0.90243574    -0.81800
O599        O  0.13909645  0.58741295  0.90998153    -0.83600
O600        O  0.07222796  0.64738264  0.93035998    -0.79200
O601        O  0.11287203  0.58965404  0.89643627    -0.90800
O602        O  0.12539963  0.64483388  0.84645754    -0.76800
O603        O  0.10611720  0.64625560  0.90357311    -0.86300
O604        O  0.13236800  0.62385029  0.89492061    -0.86000
O605        O  0.09560286  0.62566727  0.95212639    -0.72700
O606        O  0.11933878  0.60516847  0.94338894    -0.84900
Zr607      Zr  0.14031218  0.64913856  0.98454166     2.26400
Zr608      Zr  0.09790579  0.65450792  0.95279477     2.06300
Zr609      Zr  0.14679174  0.61198009  0.93571193     2.10000
Zr610      Zr  0.13370167  0.65248186  0.89594338     1.78800
O611        O  0.15668608  0.59147539  0.97016574    -0.93700
O612        O  0.12087205  0.67677917  0.87685887    -0.41500
O613        O  0.14869290  0.64062385  0.93573889    -0.78100
O614        O  0.12547978  0.66180634  0.94431300    -0.96800
O615        O  0.11281868  0.64251991  0.99291726    -0.90100
O616        O  0.13873532  0.62046321  0.98461268    -0.93000
C617        C  0.11670701  0.63385398  0.83471740     1.00800
C618        C  0.12605033  0.58165762  0.89894091     1.13700
C619        C  0.06722642  0.63587203  0.91364726     1.04500
O620        O  0.08977777  0.67835238  0.92495431    -0.95100
O621        O  0.10334583  0.67749785  0.98522691    -0.90900
O622        O  0.12942573  0.67519937  0.99968613    -0.84000
C623        C  0.11590843  0.68272458  0.99894099     1.11100
O624        O  0.09472689  0.58979195  0.98785040    -0.97100
Zr625      Zr  0.11106552  0.61400705  0.99168281     1.88900
O626        O  0.13810025  0.64122343  0.03730944    -0.73700
O627        O  0.07673277  0.65722064  0.99018901    -0.53000
O628        O  0.08558144  0.61838198  0.01731682    -0.97700
O629        O  0.12312661  0.59027728  0.01483682    -0.54900
O630        O  0.11874689  0.62218199  0.04104509    -0.74300
C631        C  0.12890061  0.63188706  0.05259075     0.98100
O632        O  0.16048378  0.66642389  0.00777350    -0.63100
O633        O  0.16787941  0.60483086  0.90020961    -0.57900
O634        O  0.16937018  0.64575583  0.97524212    -0.94600
O635        O  0.17271604  0.62291223  0.94817842    -0.93000
O636        O  0.15779695  0.64936102  0.86553521    -0.93300
O637        O  0.15283532  0.67457767  0.89745318    -0.92100
C638        C  0.17823722  0.63530958  0.96168654     1.16900
H639        H  0.13630599  0.61944576  0.87633468     0.32900
H640        H  0.12676120  0.67333525  0.94436550     0.43700
H641        H  0.14554705  0.61595215  0.00001153     0.37300
H642        H  0.08466329  0.62230529  0.95567102     0.33700
H643        H  0.12603555  0.67867756  0.85719897     0.25500
H644        H  0.06911123  0.66515459  0.98161759     0.31500
H645        H  0.08698760  0.62865301  0.02816642     0.37400
H646        H  0.16106920  0.63801433  0.86840330     0.31800
H647        H  0.17199153  0.59429678  0.90722151     0.30700
H648        H  0.15950402  0.58220793  0.95731533     0.32400
H649        H  0.13252431  0.59421364  0.02628941     0.31400
H650        H  0.15642011  0.67500542  0.91858753     0.35400
H651        H  0.16011221  0.67671606  0.99660873     0.28100
H652        H  0.08120211  0.60293061  0.86439443     0.32300
H653        H  0.09126744  0.58730242  0.00855177     0.35200
H654        H  0.16226144  0.60245052  0.88117599     0.27800
H655        H  0.15627822  0.66899739  0.02794883     0.40700
H656        H  0.08050147  0.68269608  0.93625729     0.30700
H657        H  0.10974646  0.67352157  0.87181920     0.38300
H658        H  0.12784016  0.58418421  0.99795704     0.30200
H659        H  0.07083992  0.64689256  0.98973097     0.30200
H660        H  0.07878390  0.59494472  0.89610682     0.30500
Zr661      Zr  0.10444289  0.88134709  0.23239954     2.17500
O662        O  0.08609820  0.90151138  0.25274038    -0.51800
O663        O  0.10968684  0.87463107  0.28489666    -0.75100
O664        O  0.07653022  0.87237893  0.23589580    -0.81800
O665        O  0.13799564  0.91232221  0.22421917    -0.83600
O666        O  0.07260829  0.85075080  0.20577978    -0.79200
O667        O  0.11285933  0.90892887  0.24303343    -0.90800
O668        O  0.12723342  0.85376016  0.28615471    -0.76800
O669        O  0.10617497  0.85273895  0.22913028    -0.86300
O670        O  0.13221740  0.87504454  0.23863025    -0.86000
O671        O  0.09459166  0.87419649  0.18333500    -0.72700
O672        O  0.11810204  0.89483535  0.19235773    -0.84900
Zr673      Zr  0.13915102  0.85257820  0.14648748     2.26400
Zr674      Zr  0.09756983  0.84550107  0.17959485     2.06300
Zr675      Zr  0.14582395  0.88807200  0.19828647     2.10000
Zr676      Zr  0.13381545  0.84649003  0.23532425     1.78800
O677        O  0.15730801  0.90907782  0.16685923    -0.93700
O678        O  0.11954711  0.82298387  0.25424896    -0.41500
O679        O  0.14812458  0.85952158  0.19576810    -0.78100
O680        O  0.12533886  0.83849292  0.18628226    -0.96800
O681        O  0.11139722  0.85881045  0.13983958    -0.90100
O682        O  0.13687630  0.88114982  0.14899991    -0.93000
C683        C  0.11855406  0.86444391  0.29900215     1.00800
C684        C  0.12561267  0.91733654  0.23853701     1.13700
C685        C  0.06760210  0.86141953  0.22431132     1.04500
O686        O  0.08873720  0.82048273  0.20259974    -0.95100
O687        O  0.10360296  0.82321025  0.14579506    -0.90900
O688        O  0.12936531  0.82636019  0.13010675    -0.84000
C689        C  0.11609724  0.81847391  0.13124268     1.11100
O690        O  0.08877343  0.90834813  0.14958599    -0.97100
Zr691      Zr  0.10890849  0.88722254  0.14382956     1.88900
O692        O  0.13570524  0.86211290  0.09494885    -0.73700
O693        O  0.07625650  0.84540421  0.14210645    -0.53000
O694        O  0.08439810  0.88326004  0.11475195    -0.97700
O695        O  0.12007845  0.91306870  0.12872835    -0.54900
O696        O  0.11661236  0.88157136  0.09308497    -0.74300
C697        C  0.12654225  0.87193442  0.08059240     0.98100
O698        O  0.15942934  0.83767383  0.11833324    -0.63100
O699        O  0.16539053  0.89381157  0.23763303    -0.57900
O700        O  0.16817179  0.85588050  0.15558602    -0.94600
O701        O  0.17192812  0.87826510  0.18367626    -0.93000
O702        O  0.15948886  0.84758922  0.26153410    -0.93300
O703        O  0.15106542  0.82287008  0.23215953    -0.92100
C704        C  0.17724583  0.86607656  0.16921845     1.16900
H705        H  0.13646235  0.87906987  0.25727873     0.32900
H706        H  0.12690413  0.82701272  0.18517874     0.43700
H707        H  0.14332840  0.88628627  0.13379051     0.37300
H708        H  0.08344212  0.87727945  0.18109435     0.33700
H709        H  0.12590784  0.81939926  0.27179847     0.25500
H710        H  0.06900938  0.83658114  0.14834443     0.31500
H711        H  0.08592922  0.87284700  0.10443241     0.37400
H712        H  0.15912199  0.85771350  0.27313254     0.31800
H713        H  0.17081103  0.90380532  0.23108924     0.30700
H714        H  0.16150297  0.91716991  0.18108099     0.32400
H715        H  0.12908315  0.91044298  0.11509383     0.31400
H716        H  0.15532423  0.82307819  0.21146585     0.35400
H717        H  0.16058390  0.82720257  0.12871034     0.28100
H718        H  0.08083359  0.89644485  0.27024755     0.32300
H719        H  0.08821504  0.91386324  0.12994123     0.35200
H720        H  0.15909946  0.89702287  0.25546219     0.27800
H721        H  0.15438710  0.83506455  0.09883944     0.40700
H722        H  0.09876012  0.81431829  0.20613724     0.30700
H723        H  0.10944695  0.82720130  0.26298353     0.38300
H724        H  0.12533193  0.91728235  0.14700183     0.30200
H725        H  0.07000745  0.85533891  0.14586348     0.30200
H726        H  0.07747093  0.90291860  0.23764359     0.30500
Zr727      Zr  0.10531781  0.88173124  0.73090199     2.17500
O728        O  0.08733016  0.90223143  0.75120455    -0.51800
O729        O  0.10965747  0.87457851  0.78335279    -0.75100
O730        O  0.07720711  0.87320712  0.73386859    -0.81800
O731        O  0.13987325  0.91187423  0.72530787    -0.83600
O732        O  0.07329748  0.85140863  0.70427904    -0.79200
O733        O  0.11400363  0.90918181  0.74080771    -0.90800
O734        O  0.12539608  0.85234384  0.78576513    -0.76800
O735        O  0.10674732  0.85316017  0.72809952    -0.86300
O736        O  0.13292518  0.87511851  0.73846864    -0.86000
O737        O  0.09590468  0.87497274  0.68146559    -0.72700
O738        O  0.11986793  0.89489713  0.69157683    -0.84900
Zr739      Zr  0.14055012  0.85174925  0.64753164     2.26400
Zr740      Zr  0.09829801  0.84621067  0.67837195     2.06300
Zr741      Zr  0.14736035  0.88775851  0.69859146     2.10000
Zr742      Zr  0.13427486  0.84656508  0.73559891     1.78800
O743        O  0.15744650  0.90939523  0.66699715    -0.93700
O744        O  0.12252804  0.82120307  0.75186139    -0.41500
O745        O  0.14919227  0.85918114  0.69667503    -0.78100
O746        O  0.12571907  0.83840182  0.68676457    -0.96800
O747        O  0.11313074  0.85890994  0.63915717    -0.90100
O748        O  0.13905711  0.88040316  0.64925647    -0.93000
C749        C  0.11714809  0.86355432  0.79799818     1.00800
C750        C  0.12704655  0.91728842  0.73765847     1.13700
C751        C  0.06829522  0.86210266  0.72271530     1.04500
O752        O  0.08794696  0.82157246  0.70058478    -0.95100
O753        O  0.10385843  0.82335581  0.64598916    -0.90900
O754        O  0.12989563  0.82574410  0.63145968    -0.84000
C755        C  0.11640046  0.81820947  0.63217057     1.11100
O756        O  0.09519851  0.91178639  0.64691069    -0.97100
Zr757      Zr  0.11143202  0.88742843  0.64263335     1.88900
O758        O  0.13873174  0.86104003  0.59565139    -0.73700
O759        O  0.07820494  0.84736040  0.63865045    -0.53000
O760        O  0.08585836  0.88502797  0.61622394    -0.97700
O761        O  0.12421027  0.91195820  0.62436389    -0.54900
O762        O  0.11962389  0.88045515  0.59273654    -0.74300
C763        C  0.12981254  0.87087029  0.58081414     0.98100
O764        O  0.16080511  0.83554831  0.62195390    -0.63100
O765        O  0.16793233  0.89280396  0.73637244    -0.57900
O766        O  0.16936257  0.85447292  0.65951513    -0.94600
O767        O  0.17340371  0.87834417  0.68290163    -0.93000
O768        O  0.15793116  0.85037962  0.76692639    -0.93300
O769        O  0.15414885  0.82522155  0.73036391    -0.92100
C770        C  0.17854477  0.86524752  0.67127614     1.16900
H771        H  0.13688922  0.87904581  0.75742144     0.32900
H772        H  0.12694793  0.82687442  0.68611287     0.43700
H773        H  0.14593370  0.88516440  0.63427083     0.37300
H774        H  0.08485235  0.87829683  0.67883726     0.33700
H775        H  0.12777804  0.81885902  0.77130165     0.25500
H776        H  0.07130661  0.83784788  0.64210220     0.31500
H777        H  0.08844949  0.87985376  0.59687983     0.37400
H778        H  0.16566203  0.85613937  0.75392606     0.31800
H779        H  0.17209511  0.90366493  0.73169563     0.30700
H780        H  0.16508726  0.91534192  0.67986814     0.32400
H781        H  0.13375006  0.90843187  0.61286280     0.31400
H782        H  0.15934470  0.82734872  0.71081081     0.35400
H783        H  0.16123337  0.82522392  0.63300897     0.28100
H784        H  0.08135363  0.89706369  0.76778850     0.32300
H785        H  0.09297789  0.91533007  0.62612571     0.35200
H786        H  0.16204017  0.89414042  0.75545462     0.27800
H787        H  0.15611055  0.83283016  0.60221559     0.40700
H788        H  0.07809395  0.81911262  0.68899131     0.30700
H789        H  0.11127243  0.82387556  0.75713934     0.38300
H790        H  0.12867166  0.91715312  0.64248110     0.30200
H791        H  0.07127818  0.85665188  0.64373666     0.30200
H792        H  0.07921202  0.90430959  0.73540941     0.30500
Zr793      Zr  0.65043378  0.63874270  0.11211698     2.17500
O794        O  0.67185600  0.65634279  0.13004595    -0.51800
O795        O  0.64145517  0.63636724  0.16426140    -0.75100
O796        O  0.64362350  0.66755153  0.11083805    -0.81800
O797        O  0.67950167  0.60285273  0.11349599    -0.83600
O798        O  0.62183526  0.67064073  0.08066596    -0.79200
O799        O  0.67559263  0.62804498  0.13161065    -0.90800
O800        O  0.62161496  0.61771867  0.16613135    -0.76800
O801        O  0.62186483  0.63703291  0.10862653    -0.86300
O802        O  0.64404873  0.61105391  0.11935967    -0.86000
O803        O  0.64416416  0.64749229  0.06191448    -0.72700
O804        O  0.66434023  0.62408733  0.07337744    -0.84900
Zr805      Zr  0.62155173  0.60335695  0.02709963     2.26400
Zr806      Zr  0.61543113  0.64513095  0.05841824     2.06300
Zr807      Zr  0.65719005  0.59651621  0.08014561     2.10000
Zr808      Zr  0.61557712  0.60938490  0.11559424     1.78800
O809        O  0.68065871  0.58911554  0.05060115    -0.93700
O810        O  0.59064295  0.62192840  0.13233346    -0.41500
O811        O  0.62851380  0.59443259  0.07670483    -0.78100
O812        O  0.60787950  0.61770969  0.06651985    -0.96800
O813        O  0.62859237  0.63072049  0.01910762    -0.90100
O814        O  0.65022118  0.60472860  0.03038865    -0.93000
C815        C  0.63135910  0.62755179  0.17866082     1.00800
C816        C  0.68367527  0.61491100  0.12967932     1.13700
C817        C  0.63291014  0.67624588  0.09761715     1.04500
O818        O  0.59149571  0.65555962  0.08308988    -0.95100
O819        O  0.59230671  0.63928808  0.02723617    -0.90900
O820        O  0.59477352  0.61329778  0.01264282    -0.84000
C821        C  0.58691667  0.62662327  0.01433143     1.11100
O822        O  0.67874318  0.65185279  0.02846345    -0.97100
Zr823      Zr  0.65711411  0.63224740  0.02365805     1.88900
O824        O  0.63044308  0.60663905  0.97522698    -0.73700
O825        O  0.61381424  0.66530805  0.01892720    -0.53000
O826        O  0.65204995  0.65590515  0.99274950    -0.97700
O827        O  0.68303139  0.62133640  0.00807335    -0.54900
O828        O  0.65252950  0.62255341  0.97361585    -0.74300
C829        C  0.64170072  0.61398459  0.96104996     0.98100
O830        O  0.60561774  0.58320931  0.00072830    -0.63100
O831        O  0.66130637  0.57423817  0.11485326    -0.57900
O832        O  0.62631415  0.57452666  0.03366728    -0.94600
O833        O  0.64883339  0.57046322  0.06156409    -0.93000
O834        O  0.61786672  0.58416602  0.14300039    -0.93300
O835        O  0.59229522  0.59181096  0.11153242    -0.92100
C836        C  0.63687034  0.56533801  0.04610508     1.16900
H837        H  0.64782230  0.60722731  0.13856397     0.32900
H838        H  0.59636116  0.61635648  0.06605004     0.43700
H839        H  0.65522267  0.59787824  0.01563915     0.37300
H840        H  0.64758447  0.65842522  0.05850576     0.33700
H841        H  0.58877441  0.61747738  0.15260855     0.25500
H842        H  0.60559778  0.67305321  0.02599409     0.31500
H843        H  0.65813374  0.65403138  0.97402299     0.37400
H844        H  0.62956609  0.58200394  0.14406149     0.31800
H845        H  0.67241279  0.57045456  0.11099635     0.30700
H846        H  0.68589535  0.58039144  0.06216196     0.32400
H847        H  0.68062550  0.61064219  0.99950847     0.31400
H848        H  0.59352135  0.58655084  0.09179112     0.35400
H849        H  0.59538502  0.58232375  0.01194746     0.28100
H850        H  0.66706437  0.66301255  0.14608607     0.32300
H851        H  0.68348854  0.65288764  0.00822338     0.35200
H852        H  0.66176891  0.57917433  0.13498723     0.27800
H853        H  0.60263316  0.58815894  0.98131182     0.40700
H854        H  0.58444496  0.64609180  0.08579011     0.30700
H855        H  0.59341569  0.63333358  0.13587201     0.38300
H856        H  0.68880159  0.61900514  0.02699668     0.30200
H857        H  0.62409745  0.67126028  0.02011629     0.30200
H858        H  0.67416657  0.66388082  0.11341744     0.30500
Zr859      Zr  0.65110625  0.63879561  0.61172411     2.17500
O860        O  0.67304360  0.65711921  0.62415628    -0.51800
O861        O  0.64340972  0.63657072  0.66442345    -0.75100
O862        O  0.64358257  0.66745717  0.61131184    -0.81800
O863        O  0.67991537  0.60285258  0.61265561    -0.83600
O864        O  0.62144322  0.67043129  0.58192748    -0.79200
O865        O  0.67670176  0.62840452  0.62967358    -0.90800
O866        O  0.62303360  0.61854502  0.66733947    -0.76800
O867        O  0.62251288  0.63715112  0.60957399    -0.86300
O868        O  0.64459281  0.61121558  0.62019126    -0.86000
O869        O  0.64409130  0.64721911  0.56188191    -0.72700
O870        O  0.66427244  0.62337355  0.57324735    -0.84900
Zr871      Zr  0.62126960  0.60294616  0.52869997     2.26400
Zr872      Zr  0.61539622  0.64483475  0.55958237     2.06300
Zr873      Zr  0.65693321  0.59590789  0.58122247     2.10000
Zr874      Zr  0.61613618  0.60962810  0.61760831     1.78800
O875        O  0.68030947  0.58627578  0.55367058    -0.93700
O876        O  0.59157673  0.62211305  0.63632283    -0.41500
O877        O  0.62828092  0.59423327  0.57842716    -0.78100
O878        O  0.60799649  0.61745606  0.56835916    -0.96800
O879        O  0.62827325  0.63024309  0.52023830    -0.90100
O880        O  0.64995647  0.60414221  0.53140409    -0.93000
C881        C  0.63332007  0.62801046  0.67932957     1.00800
C882        C  0.68465014  0.61519014  0.62758904     1.13700
C883        C  0.63261796  0.67607283  0.59861374     1.04500
O884        O  0.59141451  0.65365598  0.58616095    -0.95100
O885        O  0.59243203  0.63880033  0.52825337    -0.90900
O886        O  0.59478060  0.61287266  0.51310708    -0.84000
C887        C  0.58702511  0.62622583  0.51506433     1.11100
O888        O  0.67856273  0.65095661  0.53080107    -0.97100
Zr889      Zr  0.65682132  0.63165906  0.52389042     1.88900
O890        O  0.62891017  0.60667601  0.47617866    -0.73700
O891        O  0.61380206  0.66535617  0.52066881    -0.53000
O892        O  0.65378263  0.65596895  0.49387840    -0.97700
O893        O  0.68212499  0.61980626  0.50726139    -0.54900
O894        O  0.65041795  0.62333787  0.47362280    -0.74300
C895        C  0.63955087  0.61462661  0.46143197     0.98100
O896        O  0.60387489  0.58156149  0.51013571    -0.63100
O897        O  0.65975725  0.57473700  0.61867638    -0.57900
O898        O  0.62716925  0.57424372  0.53013454    -0.94600
O899        O  0.64747265  0.56994736  0.56324982    -0.93000
O900        O  0.62032871  0.58557753  0.64773343    -0.93300
O901        O  0.59341575  0.59123176  0.61563482    -0.92100
C902        C  0.63672432  0.56494353  0.54477235     1.16900
H903        H  0.64856531  0.60755164  0.63936248     0.32900
H904        H  0.59646902  0.61609421  0.56777056     0.43700
H905        H  0.65482787  0.59723641  0.51658106     0.37300
H906        H  0.64737054  0.65818038  0.55831629     0.33700
H907        H  0.59509452  0.63240168  0.64529166     0.25500
H908        H  0.60560428  0.67307817  0.52788145     0.31500
H909        H  0.64319807  0.65484978  0.48391764     0.37400
H910        H  0.62547877  0.57781779  0.63394869     0.31800
H911        H  0.67062940  0.57021889  0.61527042     0.30700
H912        H  0.67626375  0.57737658  0.54106812     0.32400
H913        H  0.67905766  0.61016733  0.49563345     0.31400
H914        H  0.59232559  0.58847503  0.59416879     0.35400
H915        H  0.59384580  0.58228260  0.52201469     0.28100
H916        H  0.66915344  0.66387707  0.64089556     0.32300
H917        H  0.68436214  0.65133353  0.51146011     0.35200
H918        H  0.66056307  0.58035321  0.63813901     0.27800
H919        H  0.60077867  0.58479736  0.48957042     0.40700
H920        H  0.58806651  0.66365290  0.57581548     0.30700
H921        H  0.58550968  0.62531041  0.61817783     0.38300
H922        H  0.68713315  0.61549903  0.52573406     0.30200
H923        H  0.62410530  0.67127097  0.52197671     0.30200
H924        H  0.67407275  0.66450124  0.60684027     0.30500
Zr925      Zr  0.85248299  0.63871866  0.27595399     2.17500
O926        O  0.83117210  0.65609159  0.25655736    -0.51800
O927        O  0.86044623  0.63552627  0.22376402    -0.75100
O928        O  0.85961354  0.66748474  0.27564193    -0.81800
O929        O  0.82299958  0.60316728  0.27994231    -0.83600
O930        O  0.88308364  0.67047975  0.30103211    -0.79200
O931        O  0.82624420  0.62840324  0.26132995    -0.90800
O932        O  0.88053446  0.61712384  0.22110803    -0.76800
O933        O  0.88105919  0.63645443  0.27716902    -0.86300
O934        O  0.85847351  0.61086700  0.26970073    -0.86000
O935        O  0.85992566  0.64836065  0.32471718    -0.72700
O936        O  0.83954241  0.62459211  0.31634556    -0.84900
Zr937      Zr  0.88303618  0.60437065  0.36053228     2.26400
Zr938      Zr  0.88865875  0.64547699  0.32615111     2.06300
Zr939      Zr  0.84639566  0.59677314  0.31056703     2.10000
Zr940      Zr  0.88688577  0.60858407  0.27129315     1.78800
O941        O  0.82341090  0.58826482  0.34035802    -0.93700
O942        O  0.91205730  0.61888527  0.25107972    -0.41500
O943        O  0.87503810  0.59439570  0.31223593    -0.78100
O944        O  0.89580861  0.61784074  0.31906151    -0.96800
O945        O  0.87638371  0.63186392  0.36738176    -0.90100
O946        O  0.85434931  0.60599965  0.35914527    -0.93000
C947        C  0.87042981  0.62678731  0.20904577     1.00800
C948        C  0.81818608  0.61533973  0.26454506     1.13700
C949        C  0.87120676  0.67611484  0.28603113     1.04500
O950        O  0.91308664  0.65530684  0.30233347    -0.95100
O951        O  0.91232017  0.64010325  0.35595058    -0.90900
O952        O  0.90984031  0.61459825  0.37328582    -0.84000
C953        C  0.91776441  0.62774316  0.36983680     1.11100
O954        O  0.82582256  0.65315811  0.36332430    -0.97100
Zr955      Zr  0.84780906  0.63372071  0.36469002     1.88900
O956        O  0.87502580  0.60858345  0.41268788    -0.73700
O957        O  0.88902229  0.66576480  0.36542899    -0.53000
O958        O  0.85389861  0.65841760  0.39169122    -0.97700
O959        O  0.82213804  0.62288897  0.38162696    -0.54900
O960        O  0.85336173  0.62512811  0.41499089    -0.74300
C961        C  0.86420056  0.61639268  0.42723660     0.98100
O962        O  0.90042986  0.58422284  0.38376879    -0.63100
O963        O  0.84192299  0.57609934  0.27288963    -0.57900
O964        O  0.87780069  0.57556483  0.35914207    -0.94600
O965        O  0.85565710  0.57101378  0.33060518    -0.93000
O966        O  0.88059529  0.58417629  0.24365033    -0.93300
O967        O  0.90858758  0.58898984  0.27517125    -0.92100
C968        C  0.86737247  0.56615164  0.34719237     1.16900
H969        H  0.85422525  0.60685695  0.25102014     0.32900
H970        H  0.90732755  0.61637353  0.31896837     0.43700
H971        H  0.84961789  0.59945130  0.37469449     0.37300
H972        H  0.85674890  0.65940078  0.32775131     0.33700
H973        H  0.91333853  0.61336997  0.23159230     0.25500
H974        H  0.89899495  0.67195415  0.36178693     0.31500
H975        H  0.86336032  0.65579311  0.40427871     0.37400
H976        H  0.88672322  0.58509460  0.22472676     0.31800
H977        H  0.85269026  0.57143508  0.26908621     0.30700
H978        H  0.82289281  0.57647178  0.33760607     0.32400
H979        H  0.82468536  0.61222245  0.39027508     0.31400
H980        H  0.90650356  0.58327233  0.29424042     0.35400
H981        H  0.91036477  0.58393078  0.37155312     0.28100
H982        H  0.83615079  0.66279356  0.24074947     0.32300
H983        H  0.82260587  0.65474681  0.38446704     0.35200
H984        H  0.83593294  0.56749600  0.28338167     0.27800
H985        H  0.90374238  0.58879071  0.40328344     0.40700
H986        H  0.91093876  0.65452676  0.28058044     0.30700
H987        H  0.90969758  0.63019236  0.24567937     0.38300
H988        H  0.81614582  0.62047603  0.36300040     0.30200
H989        H  0.88021551  0.67330700  0.36027492     0.30200
H990        H  0.82855316  0.66362054  0.27300522     0.30500
Zr991      Zr  0.85299123  0.63890548  0.77621052     2.17500
O992        O  0.83066788  0.65602585  0.76028299    -0.51800
O993        O  0.86154290  0.63655107  0.72407984    -0.75100
O994        O  0.85912803  0.66782750  0.77657135    -0.81800
O995        O  0.82409546  0.60266400  0.77727326    -0.83600
O996        O  0.88101536  0.67172050  0.80621840    -0.79200
O997        O  0.82751218  0.62799050  0.75924671    -0.90800
O998        O  0.88228953  0.61881758  0.72164909    -0.76800
O999        O  0.88161851  0.63751758  0.77870627    -0.86300
O1000       O  0.85984568  0.61132600  0.76879912    -0.86000
O1001       O  0.85952038  0.64820157  0.82565260    -0.72700
O1002       O  0.83980758  0.62391586  0.81515543    -0.84900
Zr1003     Zr  0.88280016  0.60449446  0.86100800     2.26400
Zr1004     Zr  0.88829823  0.64618826  0.82833721     2.06300
Zr1005     Zr  0.84744162  0.59643955  0.80832259     2.10000
Zr1006     Zr  0.88830472  0.60987910  0.77204699     1.78800
O1007       O  0.82442033  0.58608710  0.83589601    -0.93700
O1008       O  0.91336245  0.62140503  0.75366064    -0.41500
O1009       O  0.87617306  0.59473845  0.81178383    -0.78100
O1010       O  0.89588251  0.61875689  0.82074260    -0.96800
O1011       O  0.87551524  0.63186723  0.86827598    -0.90100
O1012       O  0.85414003  0.60544099  0.85781175    -0.93000
C1013       C  0.87201497  0.62830815  0.70947293     1.00800
C1014       C  0.81947563  0.61488680  0.76177982     1.13700
C1015       C  0.86961619  0.67689634  0.78938059     1.04500
O1016       O  0.91166351  0.65650809  0.80170980    -0.95100
O1017       O  0.91174682  0.64008405  0.85863817    -0.90900
O1018       O  0.90939118  0.61435920  0.87503882    -0.84000
C1019       C  0.91723924  0.62757033  0.87207202     1.11100
O1020       O  0.82258932  0.64900453  0.85792668    -0.97100
Zr1021     Zr  0.84694795  0.63295174  0.86412255     1.88900
O1022       O  0.87375287  0.60751513  0.91295589    -0.73700
O1023       O  0.89098308  0.66619111  0.86777262    -0.53000
O1024       O  0.84976063  0.65905596  0.88834981    -0.97700
O1025       O  0.82282768  0.62062443  0.88502254    -0.54900
O1026       O  0.85389265  0.62617649  0.91469805    -0.74300
C1027       C  0.86365636  0.61638018  0.92722711     0.98100
O1028       O  0.90282544  0.58762522  0.88602766    -0.63100
O1029       O  0.84540004  0.57649166  0.76859365    -0.57900
O1030       O  0.87755685  0.57565409  0.85798539    -0.94600
O1031       O  0.85591276  0.57064876  0.82853954    -0.93000
O1032       O  0.88492826  0.58447660  0.74577187    -0.93300
O1033       O  0.91173975  0.59237794  0.77597096    -0.92100
C1034       C  0.86746973  0.56604017  0.84561955     1.16900
H1035       H  0.85598921  0.60748839  0.74969586     0.32900
H1036       H  0.90741641  0.61746206  0.82107829     0.43700
H1037       H  0.84925850  0.59867707  0.87284833     0.37300
H1038       H  0.85587906  0.65907054  0.82888010     0.33700
H1039       H  0.91487714  0.61665192  0.73354163     0.25500
H1040       H  0.89955736  0.67349559  0.86061532     0.31500
H1041       H  0.84670112  0.65723689  0.90949984     0.37400
H1042       H  0.87585888  0.58629923  0.73178426     0.31800
H1043       H  0.85538774  0.57003183  0.77000277     0.30700
H1044       H  0.82110758  0.57637015  0.82472251     0.32400
H1045       H  0.82665226  0.61303116  0.90057219     0.31400
H1046       H  0.91240918  0.58956794  0.79749197     0.35400
H1047       H  0.89687945  0.58103802  0.90081078     0.28100
H1048       H  0.83488168  0.66307190  0.74422409     0.32300
H1049       H  0.81918449  0.65201288  0.87841304     0.35200
H1050       H  0.83676083  0.56911694  0.77519097     0.27800
H1051       H  0.90678991  0.57994099  0.87079697     0.40700
H1052       H  0.91915438  0.64727010  0.80042785     0.30700
H1053       H  0.91081806  0.63283933  0.74967796     0.38300
H1054       H  0.81868992  0.61366511  0.86880872     0.30200
H1055       H  0.88100375  0.67267811  0.86666154     0.30200
H1056       H  0.82842779  0.66324606  0.77739595     0.30500
Zr1057     Zr  0.65218645  0.86049539  0.02773990     2.17500
O1058       O  0.67423239  0.84311597  0.01161749    -0.51800
O1059       O  0.64271520  0.86326610  0.97600314    -0.75100
O1060       O  0.64559863  0.83164967  0.02702759    -0.81800
O1061       O  0.68049388  0.89660649  0.02546927    -0.83600
O1062       O  0.62466978  0.82768740  0.05883852    -0.79200
O1063       O  0.67685504  0.87135341  0.00743590    -0.90800
O1064       O  0.62213197  0.88120854  0.97490124    -0.76800
O1065       O  0.62367499  0.86181849  0.03171464    -0.86300
O1066       O  0.64523961  0.88813599  0.02109203    -0.86000
O1067       O  0.64664978  0.85113297  0.07765518    -0.72700
O1068       O  0.66603809  0.87527882  0.06637616    -0.84900
Zr1069     Zr  0.62305853  0.89450346  0.11400282     2.26400
Zr1070     Zr  0.61793919  0.85297981  0.08167309     2.06300
Zr1071     Zr  0.65836704  0.90273086  0.06012531     2.10000
Zr1072     Zr  0.61681598  0.88947298  0.02560564     1.78800
O1073       O  0.68197253  0.91066426  0.08883576    -0.93700
O1074       O  0.59154192  0.87728514  0.00993182    -0.41500
O1075       O  0.62965405  0.90427757  0.06470312    -0.78100
O1076       O  0.60971277  0.88030302  0.07422351    -0.96800
O1077       O  0.63097207  0.86733019  0.12108541    -0.90100
O1078       O  0.65178924  0.89386097  0.10977951    -0.93000
C1079       C  0.63209565  0.87171592  0.96203697     1.00800
C1080       C  0.68475220  0.88455344  0.00916493     1.13700
C1081       C  0.63540858  0.82258036  0.04065222     1.04500
O1082       O  0.59376631  0.84259947  0.05774116    -0.95100
O1083       O  0.59474979  0.85801441  0.11275648    -0.90900
O1084       O  0.59612642  0.88412199  0.12722519    -0.84000
C1085       C  0.58872544  0.87053642  0.12512900     1.11100
O1086       O  0.68478858  0.85236173  0.10726538    -0.97100
Zr1087     Zr  0.65948553  0.86649320  0.11597281     1.88900
O1088       O  0.63083301  0.88933843  0.16591146    -0.73700
O1089       O  0.61770370  0.83311931  0.12183183    -0.53000
O1090       O  0.65835085  0.84006036  0.13947384    -0.97700
O1091       O  0.68259050  0.87920797  0.13998200    -0.54900
O1092       O  0.65165275  0.87172423  0.16699125    -0.74300
C1093       C  0.64097457  0.88038020  0.17990248     0.98100
O1094       O  0.60617002  0.91476619  0.13793182    -0.63100
O1095       O  0.66127933  0.92508351  0.02519114    -0.57900
O1096       O  0.62903732  0.92323267  0.11322251    -0.94600
O1097       O  0.64951765  0.92826660  0.08084400    -0.93000
O1098       O  0.61913492  0.91453319  0.99773184    -0.93300
O1099       O  0.59386448  0.90740621  0.03171421    -0.92100
C1100       C  0.63872066  0.93282491  0.09961115     1.16900
H1101       H  0.64875322  0.89210330  0.00183599     0.32900
H1102       H  0.59816570  0.88139019  0.07456438     0.43700
H1103       H  0.65663158  0.90072265  0.12471939     0.37300
H1104       H  0.65034413  0.84022389  0.08037952     0.33700
H1105       H  0.58855576  0.88302794  0.99129251     0.25500
H1106       H  0.60850854  0.82601913  0.11705040     0.31500
H1107       H  0.64829091  0.84015901  0.15131530     0.37400
H1108       H  0.62993057  0.91869099  0.00290915     0.31800
H1109       H  0.67240220  0.92899710  0.02825285     0.30700
H1110       H  0.68976599  0.91453756  0.07372336     0.32400
H1111       H  0.67830231  0.88868682  0.15071416     0.31400
H1112       H  0.59609495  0.91326984  0.05054009     0.35400
H1113       H  0.59600339  0.91498953  0.12635365     0.28100
H1114       H  0.67005991  0.83679233  0.99452986     0.32300
H1115       H  0.68834434  0.84844108  0.12715244     0.35200
H1116       H  0.66139276  0.92014524  0.00504047     0.27800
H1117       H  0.60324063  0.91021105  0.15768509     0.40700
H1118       H  0.59710188  0.83978653  0.03712814     0.30700
H1119       H  0.59449851  0.86634169  0.00320701     0.38300
H1120       H  0.68897842  0.88376522  0.12332311     0.30200
H1121       H  0.62733418  0.82636161  0.11835668     0.30200
H1122       H  0.67591168  0.83524665  0.02799778     0.30500
Zr1123     Zr  0.65280315  0.86067221  0.52849210     2.17500
O1124       O  0.67353605  0.84426228  0.50475473    -0.51800
O1125       O  0.64327270  0.86227896  0.47673980    -0.75100
O1126       O  0.64679157  0.83172584  0.53066123    -0.81800
O1127       O  0.68237481  0.89639557  0.53055623    -0.83600
O1128       O  0.62263820  0.82905597  0.55385498    -0.79200
O1129       O  0.67944066  0.87056218  0.51519389    -0.90800
O1130       O  0.62378195  0.88125191  0.47252517    -0.76800
O1131       O  0.62428473  0.86328320  0.52866905    -0.86300
O1132       O  0.64708616  0.88847742  0.52080622    -0.86000
O1133       O  0.64485993  0.85146396  0.57746309    -0.72700
O1134       O  0.66562793  0.87489044  0.56892976    -0.84900
Zr1135     Zr  0.62190535  0.89590197  0.61109376     2.26400
Zr1136     Zr  0.61613155  0.85444004  0.57739645     2.06300
Zr1137     Zr  0.65915152  0.90264589  0.56171010     2.10000
Zr1138     Zr  0.61862023  0.89114228  0.52210917     1.78800
O1139       O  0.68233497  0.91092792  0.59131575    -0.93700
O1140       O  0.59286800  0.88104618  0.50419712    -0.41500
O1141       O  0.63053236  0.90522505  0.56286794    -0.78100
O1142       O  0.60938678  0.88218073  0.56977259    -0.96800
O1143       O  0.62814993  0.86833880  0.61849440    -0.90100
O1144       O  0.65062705  0.89407340  0.61055823    -0.93000
C1145       C  0.63313869  0.87060499  0.46142390     1.00800
C1146       C  0.68734127  0.88380416  0.51670294     1.13700
C1147       C  0.63495083  0.82321983  0.54039129     1.04500
O1148       O  0.59252436  0.84518582  0.55013042    -0.95100
O1149       O  0.59223919  0.86051791  0.60635388    -0.90900
O1150       O  0.59502998  0.88598137  0.62379598    -0.84000
C1151       C  0.58698492  0.87291997  0.62036233     1.11100
O1152       O  0.67945133  0.84793752  0.61348581    -0.97100
Zr1153     Zr  0.65667715  0.86632980  0.61736104     1.88900
O1154       O  0.62834381  0.89192589  0.66417185    -0.73700
O1155       O  0.61424846  0.83446426  0.61725250    -0.53000
O1156       O  0.65135298  0.84146569  0.64458288    -0.97700
O1157       O  0.68105718  0.87766767  0.63905746    -0.54900
O1158       O  0.64848876  0.87361372  0.66720059    -0.74300
C1159       C  0.63803485  0.88290073  0.67915589     0.98100
O1160       O  0.60386662  0.91691938  0.62922809    -0.63100
O1161       O  0.66200174  0.92444702  0.52556200    -0.57900
O1162       O  0.62792786  0.92453264  0.60845760    -0.94600
O1163       O  0.65046160  0.92851642  0.58068577    -0.93000
O1164       O  0.62501166  0.91563453  0.49461755    -0.93300
O1165       O  0.59682415  0.91069146  0.52449156    -0.92100
C1166       C  0.63855479  0.93365682  0.59628439     1.16900
H1167       H  0.65138033  0.89213921  0.50189767     0.32900
H1168       H  0.59789008  0.88378253  0.56936586     0.43700
H1169       H  0.65531022  0.90065871  0.62607388     0.37300
H1170       H  0.64799742  0.84050090  0.58145677     0.33700
H1171       H  0.59221119  0.88451332  0.48300947     0.25500
H1172       H  0.60317748  0.83016763  0.61576280     0.31500
H1173       H  0.65679255  0.84274862  0.66416935     0.37400
H1174       H  0.62689257  0.92384422  0.51026391     0.31800
H1175       H  0.67294133  0.92875634  0.52901077     0.30700
H1176       H  0.69002879  0.91544561  0.57664829     0.32400
H1177       H  0.67736706  0.88645376  0.65231016     0.31400
H1178       H  0.59805028  0.91579411  0.54437954     0.35400
H1179       H  0.59435685  0.91665092  0.61585052     0.28100
H1180       H  0.66798863  0.83824083  0.48867525     0.32300
H1181       H  0.68259519  0.84534787  0.63433678     0.35200
H1182       H  0.66260523  0.91918879  0.50573237     0.27800
H1183       H  0.59990723  0.91319412  0.64895512     0.40700
H1184       H  0.59006978  0.83451284  0.55882546     0.30700
H1185       H  0.59427451  0.86924080  0.50321077     0.38300
H1186       H  0.68642106  0.88319499  0.62216829     0.30200
H1187       H  0.62124317  0.82543649  0.61099719     0.30200
H1188       H  0.67669031  0.83605113  0.51973742     0.30500
Zr1189     Zr  0.85407443  0.85982742  0.36126136     2.17500
O1190       O  0.83363934  0.84253740  0.38364627    -0.51800
O1191       O  0.86288070  0.86165908  0.41336859    -0.75100
O1192       O  0.86025325  0.83092767  0.35773369    -0.81800
O1193       O  0.82561058  0.89638438  0.36304467    -0.83600
O1194       O  0.88354910  0.82766597  0.33190544    -0.79200
O1195       O  0.82766034  0.86997381  0.37552028    -0.90800
O1196       O  0.88346902  0.87940922  0.41606413    -0.76800
O1197       O  0.88268241  0.86112922  0.35810353    -0.86300
O1198       O  0.86097814  0.88728813  0.36974790    -0.86000
O1199       O  0.86018376  0.85104039  0.31120603    -0.72700
O1200       O  0.84070673  0.87535816  0.32306764    -0.84900
Zr1201     Zr  0.88388534  0.89515807  0.27772820     2.26400
Zr1202     Zr  0.88887816  0.85304714  0.30781448     2.06300
Zr1203     Zr  0.84843542  0.90266637  0.33087991     2.10000
Zr1204     Zr  0.88944207  0.88861821  0.36616359     1.78800
O1205       O  0.82436398  0.91092106  0.30378131    -0.93700
O1206       O  0.91428391  0.87624682  0.38393083    -0.41500
O1207       O  0.87711701  0.90421901  0.32734545    -0.78100
O1208       O  0.89709389  0.88022285  0.31714403    -0.96800
O1209       O  0.87619205  0.86810098  0.26887120    -0.90100
O1210       O  0.85523775  0.89436491  0.28119137    -0.93000
C1211       C  0.87337874  0.86976898  0.42808650     1.00800
C1212       C  0.82023388  0.88354765  0.37559891     1.13700
C1213       C  0.87151284  0.82214645  0.34653120     1.04500
O1214       O  0.91357688  0.84030025  0.32515557    -0.95100
O1215       O  0.91195541  0.85870200  0.27677076    -0.90900
O1216       O  0.91040641  0.88490530  0.26297374    -0.84000
C1217       C  0.91775081  0.87129034  0.26424434     1.11100
O1218       O  0.82305621  0.85181504  0.28185601    -0.97100
Zr1219     Zr  0.84766573  0.86708918  0.27350748     1.88900
O1220       O  0.87583356  0.89159077  0.22540546    -0.73700
O1221       O  0.88585378  0.83453668  0.26598046    -0.53000
O1222       O  0.84933735  0.84126902  0.24793185    -0.97700
O1223       O  0.82438910  0.87999120  0.25024808    -0.54900
O1224       O  0.85538751  0.87366640  0.22318078    -0.74300
C1225       C  0.86574233  0.88288339  0.21084461     0.98100
O1226       O  0.90140090  0.91575526  0.25645405    -0.63100
O1227       O  0.84690760  0.92412099  0.36788144    -0.57900
O1228       O  0.87761693  0.92377824  0.27861089    -0.94600
O1229       O  0.85640244  0.92834647  0.30953095    -0.93000
O1230       O  0.88695621  0.91277254  0.39659158    -0.93300
O1231       O  0.91160659  0.90756375  0.36170162    -0.92100
C1232       C  0.86739715  0.93312923  0.29138943     1.16900
H1233       H  0.85717271  0.89088004  0.38904753     0.32900
H1234       H  0.90864659  0.88127549  0.31669314     0.43700
H1235       H  0.85049889  0.90148002  0.26647512     0.37300
H1236       H  0.85657678  0.84021682  0.30740635     0.33700
H1237       H  0.91600832  0.88086288  0.40410520     0.25500
H1238       H  0.89578403  0.82795100  0.26635368     0.31500
H1239       H  0.84556121  0.84340229  0.22726920     0.37400
H1240       H  0.87604389  0.91225694  0.40537904     0.31800
H1241       H  0.83640277  0.92938067  0.36410642     0.30700
H1242       H  0.82375138  0.92270405  0.30662165     0.32400
H1243       H  0.82259463  0.87392774  0.23147892     0.31400
H1244       H  0.91019246  0.91247651  0.34165411     0.35400
H1245       H  0.91117614  0.91583720  0.26915294     0.28100
H1246       H  0.83935418  0.83549466  0.39806622     0.32300
H1247       H  0.81933090  0.84838710  0.26179846     0.35200
H1248       H  0.84556080  0.91862959  0.38739630     0.27800
H1249       H  0.90498801  0.91157478  0.23680673     0.40700
H1250       H  0.91842368  0.84822425  0.33897880     0.30700
H1251       H  0.91146117  0.86487297  0.38777545     0.38300
H1252       H  0.82811289  0.89067117  0.24341157     0.30200
H1253       H  0.87724182  0.82702744  0.27214291     0.30200
H1254       H  0.82995902  0.83532076  0.36741951     0.30500
Zr1255     Zr  0.85330664  0.86106694  0.86129237     2.17500
O1256       O  0.83355147  0.84410967  0.88654636    -0.51800
O1257       O  0.86173155  0.86441574  0.91355113    -0.75100
O1258       O  0.85908523  0.83202580  0.85898502    -0.81800
O1259       O  0.82316465  0.89641477  0.85532353    -0.83600
O1260       O  0.88312472  0.82877756  0.83581183    -0.79200
O1261       O  0.82648888  0.87104406  0.87316472    -0.90800
O1262       O  0.88236081  0.88215952  0.91567542    -0.76800
O1263       O  0.88190031  0.86304100  0.86017310    -0.86300
O1264       O  0.85959313  0.88882212  0.86765554    -0.86000
O1265       O  0.86061089  0.85151009  0.81216304    -0.72700
O1266       O  0.84016988  0.87525522  0.82093225    -0.84900
Zr1267     Zr  0.88404608  0.89485925  0.77659481     2.26400
Zr1268     Zr  0.88939414  0.85380772  0.81133861     2.06300
Zr1269     Zr  0.84730209  0.90289358  0.82681712     2.10000
Zr1270     Zr  0.88808260  0.89086274  0.86549175     1.78800
O1271       O  0.82467511  0.91285037  0.79741902    -0.93700
O1272       O  0.91380489  0.88042998  0.88323673    -0.41500
O1273       O  0.87599307  0.90491656  0.82468359    -0.78100
O1274       O  0.89690842  0.88135276  0.81795202    -0.96800
O1275       O  0.87699553  0.86743551  0.77009665    -0.90100
O1276       O  0.85532326  0.89380938  0.77813574    -0.93000
C1277       C  0.87215040  0.87278272  0.92803325     1.00800
C1278       C  0.81825434  0.88403105  0.86995432     1.13700
C1279       C  0.87063313  0.82321271  0.84894711     1.04500
O1280       O  0.91290769  0.84454933  0.83906715    -0.95100
O1281       O  0.91268909  0.85896558  0.78028027    -0.90900
O1282       O  0.91100206  0.88483290  0.76440292    -0.84000
C1283       C  0.91849951  0.87136112  0.76705304     1.11100
O1284       O  0.82517575  0.84863715  0.77764796    -0.97100
Zr1285     Zr  0.84836768  0.86631125  0.77240476     1.88900
O1286       O  0.87708319  0.88996395  0.72421748    -0.73700
O1287       O  0.89128688  0.83237737  0.77437071    -0.53000
O1288       O  0.85143923  0.84127600  0.74469538    -0.97700
O1289       O  0.82410862  0.87889797  0.75229435    -0.54900
O1290       O  0.85539348  0.87354959  0.72200403    -0.74300
C1291       C  0.86648111  0.88188454  0.70970444     0.98100
O1292       O  0.90095455  0.91534394  0.75339349    -0.63100
O1293       O  0.84467346  0.92384078  0.86463709    -0.57900
O1294       O  0.87836683  0.92356149  0.77820065    -0.94600
O1295       O  0.85587169  0.92830175  0.80567989    -0.93000
O1296       O  0.88265209  0.91564144  0.89267674    -0.93300
O1297       O  0.90960813  0.91058166  0.86152357    -0.92100
C1298       C  0.86771187  0.93298987  0.78945133     1.16900
H1299       H  0.85549036  0.89277623  0.88649119     0.32900
H1300       H  0.90844163  0.88266455  0.81810317     0.43700
H1301       H  0.85071824  0.90047248  0.76258739     0.37300
H1302       H  0.85726614  0.84059802  0.80845527     0.33700
H1303       H  0.91639304  0.88695067  0.90112792     0.25500
H1304       H  0.89969935  0.82505234  0.78223178     0.31500
H1305       H  0.86150109  0.84256478  0.73309898     0.37400
H1306       H  0.88753173  0.91400928  0.91268897     0.31800
H1307       H  0.83464342  0.92960172  0.85925665     0.30700
H1308       H  0.82310794  0.92407515  0.80416436     0.32400
H1309       H  0.82783027  0.88809617  0.74005780     0.31400
H1310       H  0.90812725  0.91547653  0.84147866     0.35400
H1311       H  0.91103526  0.91557534  0.76522866     0.28100
H1312       H  0.83960739  0.83773939  0.90156062     0.32300
H1313       H  0.82085360  0.84724262  0.75714370     0.35200
H1314       H  0.84205047  0.91818470  0.88352111     0.27800
H1315       H  0.90407257  0.91094221  0.73364293     0.40700
H1316       H  0.92040168  0.85378486  0.83895473     0.30700
H1317       H  0.91130443  0.86963628  0.89133774     0.38300
H1318       H  0.81881679  0.88385980  0.76984604     0.30200
H1319       H  0.88113832  0.82625315  0.77635126     0.30200
H1320       H  0.82978613  0.83623603  0.87149001     0.30500
Zr1321     Zr  0.60532264  0.11846499  0.15468801     2.17500
O1322       O  0.58783774  0.09863562  0.13101717    -0.51800
O1323       O  0.60887985  0.12675539  0.10239995    -0.75100
O1324       O  0.57678791  0.12592133  0.15528202    -0.81800
O1325       O  0.64019744  0.08821571  0.16012452    -0.83600
O1326       O  0.57303710  0.14777070  0.18486756    -0.79200
O1327       O  0.61422218  0.09077514  0.14506514    -0.90800
O1328       O  0.62422303  0.14922937  0.10093573    -0.76800
O1329       O  0.60634554  0.14705515  0.15884486    -0.86300
O1330       O  0.63267068  0.12567618  0.14643553    -0.86000
O1331       O  0.59651396  0.12463016  0.20493941    -0.72700
O1332       O  0.62055951  0.10522241  0.19306859    -0.84900
Zr1333     Zr  0.64109454  0.14766529  0.23897049     2.26400
Zr1334     Zr  0.59850142  0.15338320  0.20919167     2.06300
Zr1335     Zr  0.64781564  0.11279054  0.18526074     2.10000
Zr1336     Zr  0.63370292  0.15418547  0.15105800     1.78800
O1337       O  0.65934578  0.09047260  0.21343661    -0.93700
O1338       O  0.62117942  0.17936949  0.13540387    -0.41500
O1339       O  0.64938172  0.14137711  0.18905167    -0.78100
O1340       O  0.62579053  0.16148911  0.20078928    -0.96800
O1341       O  0.61382017  0.14022609  0.24734269    -0.90100
O1342       O  0.63999677  0.11908226  0.23545533    -0.93000
C1343       C  0.61596747  0.13820229  0.08821654     1.00800
C1344       C  0.62731648  0.08261903  0.14823339     1.13700
C1345       C  0.56782248  0.13676662  0.16726170     1.04500
O1346       O  0.59069672  0.17900678  0.18707177    -0.95100
O1347       O  0.60382445  0.17444447  0.24576994    -0.90900
O1348       O  0.63054988  0.17340978  0.25612386    -0.84000
C1349       C  0.61660551  0.17997766  0.25826083     1.11100
O1350       O  0.59613450  0.08777783  0.23607138    -0.97100
Zr1351     Zr  0.61252796  0.11179549  0.24266988     1.88900
O1352       O  0.63920557  0.13801880  0.29062225    -0.73700
O1353       O  0.57710456  0.15322829  0.24645052    -0.53000
O1354       O  0.58766023  0.11345733  0.27133878    -0.97700
O1355       O  0.62590415  0.08726251  0.25949293    -0.54900
O1356       O  0.62033473  0.11844138  0.29298632    -0.74300
C1357       C  0.63030044  0.12813048  0.30521895     0.98100
O1358       O  0.66099638  0.16326205  0.26675346    -0.63100
O1359       O  0.66681101  0.10956889  0.14413153    -0.57900
O1360       O  0.66992760  0.14519873  0.22755206    -0.94600
O1361       O  0.67381747  0.12216567  0.20135615    -0.93000
O1362       O  0.65780140  0.15004058  0.12110188    -0.93300
O1363       O  0.65213491  0.17686545  0.15350641    -0.92100
C1364       C  0.67905150  0.13476304  0.21463435     1.16900
H1365       H  0.63646311  0.12210961  0.12711311     0.32900
H1366       H  0.62684128  0.17301753  0.20220355     0.43700
H1367       H  0.64710634  0.11410537  0.24991135     0.37300
H1368       H  0.58558334  0.12111919  0.20817876     0.33700
H1369       H  0.60979809  0.17659800  0.13143622     0.25500
H1370       H  0.56919657  0.16127743  0.23927369     0.31500
H1371       H  0.58782210  0.12430472  0.28041180     0.37400
H1372       H  0.66452367  0.14260513  0.13312297     0.31800
H1373       H  0.67362665  0.10032358  0.15005718     0.30700
H1374       H  0.66916123  0.08745189  0.20223086     0.32400
H1375       H  0.63522944  0.09080948  0.27157082     0.31400
H1376       H  0.65536251  0.17742539  0.17482734     0.35400
H1377       H  0.66188221  0.17366217  0.25605756     0.28100
H1378       H  0.58179518  0.10448573  0.11527415     0.32300
H1379       H  0.59469694  0.08319917  0.25637427     0.35200
H1380       H  0.66040021  0.10554894  0.12703029     0.27800
H1381       H  0.65593058  0.16594283  0.28618323     0.40700
H1382       H  0.58097458  0.18229465  0.19830903     0.30700
H1383       H  0.62079483  0.18609955  0.15365013     0.38300
H1384       H  0.63067512  0.08262443  0.24112770     0.30200
H1385       H  0.57164409  0.14274980  0.24392502     0.30200
H1386       H  0.57971915  0.09568129  0.14627289     0.30500
Zr1387     Zr  0.60529754  0.11756898  0.65398769     2.17500
O1388       O  0.58706705  0.09669043  0.63600336    -0.51800
O1389       O  0.60862125  0.12482174  0.60133512    -0.75100
O1390       O  0.57704439  0.12568276  0.65159678    -0.81800
O1391       O  0.63937750  0.08673345  0.66264677    -0.83600
O1392       O  0.57322329  0.14783241  0.68038398    -0.79200
O1393       O  0.61467311  0.09046065  0.64202144    -0.90800
O1394       O  0.62643862  0.14536888  0.59904794    -0.76800
O1395       O  0.60725102  0.14618789  0.65518488    -0.86300
O1396       O  0.63312193  0.12350665  0.64734202    -0.86000
O1397       O  0.59572564  0.12551267  0.70275314    -0.72700
O1398       O  0.61906890  0.10460423  0.69470319    -0.84900
Zr1399     Zr  0.64038418  0.14769600  0.73797120     2.26400
Zr1400     Zr  0.59866391  0.15426410  0.70418487     2.06300
Zr1401     Zr  0.64676388  0.11104595  0.68848918     2.10000
Zr1402     Zr  0.63499597  0.15206218  0.64904548     1.78800
O1403       O  0.65615530  0.08922300  0.72050258    -0.93700
O1404       O  0.62229777  0.17684595  0.63185369    -0.41500
O1405       O  0.64940952  0.13960001  0.68922874    -0.78100
O1406       O  0.62645013  0.16096689  0.69731932    -0.96800
O1407       O  0.61261692  0.14163684  0.74478988    -0.90100
O1408       O  0.63807513  0.11908095  0.73726790    -0.93000
C1409       C  0.61701803  0.13515601  0.58676775     1.00800
C1410       C  0.62721234  0.08185956  0.64755117     1.13700
C1411       C  0.56806263  0.13662451  0.66315031     1.04500
O1412       O  0.59151383  0.17855386  0.67673294    -0.95100
O1413       O  0.60453917  0.17711779  0.73650884    -0.90900
O1414       O  0.63042312  0.17436064  0.75203638    -0.84000
C1415       C  0.61707168  0.18218461  0.75051038     1.11100
O1416       O  0.59205885  0.09031057  0.73735409    -0.97100
Zr1417     Zr  0.61016134  0.11315851  0.74285435     1.88900
O1418       O  0.63621832  0.13992082  0.79055784    -0.73700
O1419       O  0.57712264  0.15713503  0.74077138    -0.53000
O1420       O  0.58473046  0.11775402  0.76859124    -0.97700
O1421       O  0.62101242  0.08831659  0.76383065    -0.54900
O1422       O  0.61722374  0.12043125  0.79316081    -0.74300
C1423       C  0.62687559  0.13044338  0.80531647     0.98100
O1424       O  0.66125117  0.16368163  0.76219235    -0.63100
O1425       O  0.66650357  0.10483500  0.64983639    -0.57900
O1426       O  0.66946961  0.14330636  0.73018740    -0.94600
O1427       O  0.67280305  0.11970589  0.70551676    -0.93000
O1428       O  0.65903424  0.14971759  0.61827757    -0.93300
O1429       O  0.65412070  0.17411622  0.65266044    -0.92100
C1430       C  0.67834863  0.13225564  0.71843642     1.16900
H1431       H  0.63716684  0.11925709  0.62869435     0.32900
H1432       H  0.62798710  0.17246127  0.69753956     0.43700
H1433       H  0.64456270  0.11422496  0.75280033     0.37300
H1434       H  0.58465026  0.12241547  0.70558752     0.33700
H1435       H  0.62826272  0.17978592  0.61346804     0.25500
H1436       H  0.56939638  0.16474455  0.73153141     0.31500
H1437       H  0.58623288  0.12797169  0.77956515     0.37400
H1438       H  0.66689850  0.14400389  0.63112954     0.31800
H1439       H  0.67269076  0.11487333  0.64693933     0.30700
H1440       H  0.66293719  0.08247137  0.70732843     0.32400
H1441       H  0.63040568  0.09158338  0.77600535     0.31400
H1442       H  0.65624561  0.17524676  0.67437393     0.35400
H1443       H  0.66238082  0.17345197  0.74966162     0.28100
H1444       H  0.58134860  0.10131953  0.61852517     0.32300
H1445       H  0.58912977  0.08704777  0.75797319     0.35200
H1446       H  0.67417764  0.09732644  0.65950479     0.27800
H1447       H  0.65649636  0.16751851  0.78120638     0.40700
H1448       H  0.58219159  0.18303201  0.68771693     0.30700
H1449       H  0.61154626  0.17357834  0.62453217     0.38300
H1450       H  0.62569517  0.08258135  0.74649050     0.30200
H1451       H  0.57148183  0.14666425  0.74068575     0.30200
H1452       H  0.57876023  0.09534982  0.65169007     0.30500
Zr1453     Zr  0.60509327  0.38121558  0.48135602     2.17500
O1454       O  0.58770318  0.40289506  0.49897936    -0.51800
O1455       O  0.60887141  0.37407682  0.53426253    -0.75100
O1456       O  0.57661652  0.37373640  0.48446163    -0.81800
O1457       O  0.64029998  0.41079774  0.47553781    -0.83600
O1458       O  0.57281827  0.35100352  0.45732100    -0.79200
O1459       O  0.61500926  0.40790617  0.49390246    -0.90800
O1460       O  0.62713639  0.35386298  0.53666416    -0.76800
O1461       O  0.60666726  0.35259152  0.48018110    -0.86300
O1462       O  0.63284958  0.37485500  0.48783766    -0.86000
O1463       O  0.59531088  0.37357177  0.43249728    -0.72700
O1464       O  0.61904105  0.39398480  0.44054462    -0.84900
Zr1465     Zr  0.63931906  0.35019828  0.39729245     2.26400
Zr1466     Zr  0.59765987  0.34480196  0.43124085     2.06300
Zr1467     Zr  0.64666129  0.38697238  0.44666057     2.10000
Zr1468     Zr  0.63438223  0.34630151  0.48635294     1.78800
O1469       O  0.65571191  0.40826884  0.41321471    -0.93700
O1470       O  0.62164823  0.32224057  0.50651893    -0.41500
O1471       O  0.64861443  0.35834357  0.44582571    -0.78100
O1472       O  0.62532642  0.33745682  0.43828285    -0.96800
O1473       O  0.61168715  0.35694771  0.39030202    -0.90100
O1474       O  0.63781819  0.37889499  0.39795947    -0.93000
C1475       C  0.61776747  0.36413561  0.54897281     1.00800
C1476       C  0.62802249  0.41596818  0.49005505     1.13700
C1477       C  0.56768060  0.36238745  0.47419391     1.04500
O1478       O  0.58847435  0.32019865  0.45532096    -0.95100
O1479       O  0.60313788  0.32124528  0.40062199    -0.90900
O1480       O  0.62861062  0.32382133  0.38304786    -0.84000
C1481       C  0.61536886  0.31597755  0.38602732     1.11100
O1482       O  0.59141390  0.40797327  0.39786346    -0.97100
Zr1483     Zr  0.61008478  0.38554331  0.39223474     1.88900
O1484       O  0.63651403  0.35876202  0.34496194    -0.73700
O1485       O  0.57636864  0.34438087  0.39371444    -0.53000
O1486       O  0.58558078  0.38223013  0.36293134    -0.97700
O1487       O  0.62213730  0.41019228  0.37285178    -0.54900
O1488       O  0.61792641  0.37866914  0.34204977    -0.74300
C1489       C  0.62767480  0.36866178  0.33006230     0.98100
O1490       O  0.65963164  0.33340263  0.37322400    -0.63100
O1491       O  0.66726798  0.39394544  0.48327456    -0.57900
O1492       O  0.66838332  0.35335746  0.40538239    -0.94600
O1493       O  0.67239649  0.37665377  0.43070282    -0.93000
O1494       O  0.66014498  0.34905144  0.51187095    -0.93300
O1495       O  0.65230826  0.32318839  0.48337273    -0.92100
C1496       C  0.67755078  0.36397195  0.41757448     1.16900
H1497       H  0.63704174  0.37914116  0.50638418     0.32900
H1498       H  0.62669776  0.32593950  0.43817075     0.43700
H1499       H  0.64448138  0.38347800  0.38239860     0.37300
H1500       H  0.58422911  0.37682596  0.42988902     0.33700
H1501       H  0.62659647  0.32073992  0.52651130     0.25500
H1502       H  0.56854198  0.33637662  0.40122593     0.31500
H1503       H  0.58661458  0.37150074  0.35356503     0.37400
H1504       H  0.65888155  0.35852805  0.52503887     0.31800
H1505       H  0.67122780  0.38351169  0.49105777     0.30700
H1506       H  0.65990017  0.41674041  0.42665319     0.32400
H1507       H  0.63216090  0.40687335  0.36262717     0.31400
H1508       H  0.65849044  0.32491042  0.46469848     0.35400
H1509       H  0.65949912  0.32302364  0.38412152     0.28100
H1510       H  0.58206955  0.39863343  0.51682632     0.32300
H1511       H  0.59102251  0.41333617  0.37806386     0.35200
H1512       H  0.67635092  0.39835203  0.47153164     0.27800
H1513       H  0.65530573  0.33093141  0.35308733     0.40700
H1514       H  0.57890870  0.31688621  0.44363669     0.30700
H1515       H  0.61040982  0.32543680  0.51082445     0.38300
H1516       H  0.62579673  0.41609033  0.39083760     0.30200
H1517       H  0.57079733  0.35484183  0.39587479     0.30200
H1518       H  0.57925922  0.40426507  0.48351993     0.30500
Zr1519     Zr  0.60533809  0.38089706  0.98221688     2.17500
O1520       O  0.58752434  0.40095000  0.00452615    -0.51800
O1521       O  0.60882412  0.37189333  0.03408160    -0.75100
O1522       O  0.57683888  0.37333580  0.98251381    -0.81800
O1523       O  0.63992314  0.41166857  0.97737416    -0.83600
O1524       O  0.57283778  0.35213789  0.95148550    -0.79200
O1525       O  0.61458328  0.40810349  0.99503769    -0.90800
O1526       O  0.62608609  0.35077538  0.03488711    -0.76800
O1527       O  0.60710898  0.35229008  0.97824101    -0.86300
O1528       O  0.63299233  0.37423074  0.98937027    -0.86000
O1529       O  0.59604341  0.37456405  0.93232174    -0.72700
O1530       O  0.61966108  0.39463466  0.94323116    -0.84900
Zr1531     Zr  0.64059906  0.35226658  0.89679326     2.26400
Zr1532     Zr  0.59847923  0.34579365  0.92843312     2.06300
Zr1533     Zr  0.64720366  0.38761212  0.95008825     2.10000
Zr1534     Zr  0.63479891  0.34573124  0.98456871     1.78800
O1535       O  0.65711198  0.41035715  0.92115634    -0.93700
O1536       O  0.62374359  0.32015560  0.00136148    -0.41500
O1537       O  0.64957381  0.35905603  0.94619986    -0.78100
O1538       O  0.62607949  0.33819623  0.93559990    -0.96800
O1539       O  0.61303728  0.35911795  0.88939469    -0.90100
O1540       O  0.63889756  0.38089221  0.90032393    -0.93000
C1541       C  0.61697128  0.36099440  0.04788254     1.00800
C1542       C  0.62740603  0.41659017  0.99144518     1.13700
C1543       C  0.56774841  0.36284589  0.96985207     1.04500
O1544       O  0.58997916  0.32183198  0.95544784    -0.95100
O1545       O  0.60416620  0.32342946  0.89470734    -0.90900
O1546       O  0.63016951  0.32620061  0.88012797    -0.84000
C1547       C  0.61675966  0.31849785  0.88071946     1.11100
O1548       O  0.59311404  0.41043074  0.89962534    -0.97100
Zr1549     Zr  0.61123132  0.38756121  0.89387148     1.88900
O1550       O  0.63852402  0.36227910  0.84546513    -0.73700
O1551       O  0.57727297  0.34370221  0.89091530    -0.53000
O1552       O  0.58697737  0.38313658  0.86433761    -0.97700
O1553       O  0.62231487  0.41312769  0.87689634    -0.54900
O1554       O  0.62015837  0.38240099  0.84361915    -0.74300
C1555       C  0.63003791  0.37269247  0.83117642     0.98100
O1556       O  0.66033549  0.33619383  0.86952074    -0.63100
O1557       O  0.66709785  0.39149491  0.98962928    -0.57900
O1558       O  0.66954242  0.35581393  0.90619601    -0.94600
O1559       O  0.67315791  0.37886843  0.93257947    -0.93000
O1560       O  0.65921435  0.34828148  0.01432647    -0.93300
O1561       O  0.65386682  0.32375532  0.97805890    -0.92100
C1562       C  0.67852188  0.36651443  0.91867680     1.16900
H1563       H  0.63687762  0.37784538  0.00858546     0.32900
H1564       H  0.62745040  0.32669309  0.93446982     0.43700
H1565       H  0.64566125  0.38606128  0.88562003     0.37300
H1566       H  0.58505752  0.37799724  0.92933732     0.33700
H1567       H  0.62963994  0.31767210  0.02009459     0.25500
H1568       H  0.56963944  0.33571358  0.89915560     0.31500
H1569       H  0.58892678  0.37292149  0.85357846     0.37400
H1570       H  0.66648292  0.35494103  0.00191186     0.31800
H1571       H  0.67275137  0.40153792  0.98411874     0.30700
H1572       H  0.66761121  0.41302816  0.93035615     0.32400
H1573       H  0.63169526  0.41030537  0.86431338     0.31400
H1574       H  0.65991350  0.32658183  0.95970215     0.35400
H1575       H  0.66099012  0.32577255  0.88021420     0.28100
H1576       H  0.58179284  0.39541702  0.02100516     0.32300
H1577       H  0.58999163  0.41360728  0.87904081     0.35200
H1578       H  0.66090738  0.39432024  0.00780297     0.27800
H1579       H  0.65534051  0.33366053  0.84994476     0.40700
H1580       H  0.59933495  0.31447219  0.95450222     0.30700
H1581       H  0.61267889  0.32271200  0.00803021     0.38300
H1582       H  0.62704099  0.41800334  0.89508951     0.30200
H1583       H  0.57142409  0.35406749  0.89185290     0.30200
H1584       H  0.57918363  0.40336592  0.98930542     0.30500
Zr1585     Zr  0.39904057  0.62018661  0.48240448     2.17500
O1586       O  0.41603744  0.60067025  0.50839283    -0.51800
O1587       O  0.39534785  0.62765201  0.53496379    -0.75100
O1588       O  0.42767716  0.62730427  0.48205713    -0.81800
O1589       O  0.36375842  0.59055928  0.47735686    -0.83600
O1590       O  0.43225806  0.64853150  0.45122576    -0.79200
O1591       O  0.39012683  0.59244371  0.49020811    -0.90800
O1592       O  0.37880421  0.64926597  0.53757892    -0.76800
O1593       O  0.39827099  0.64879740  0.47929502    -0.86300
O1594       O  0.37166556  0.62749879  0.49067800    -0.86000
O1595       O  0.40813446  0.62673061  0.43254708    -0.72700
O1596       O  0.38385976  0.60733725  0.44350728    -0.84900
Zr1597     Zr  0.36387479  0.65032641  0.39879026     2.26400
Zr1598     Zr  0.40643565  0.65557983  0.42930614     2.06300
Zr1599     Zr  0.35651123  0.61515593  0.45140152     2.10000
Zr1600     Zr  0.37095005  0.65608094  0.48711307     1.78800
O1601       O  0.34398778  0.59306092  0.42436003    -0.93700
O1602       O  0.38482680  0.67978961  0.50594701    -0.41500
O1603       O  0.35531672  0.64375626  0.44853513    -0.78100
O1604       O  0.37909285  0.66363774  0.43771181    -0.96800
O1605       O  0.39117268  0.64298643  0.39044045    -0.90100
O1606       O  0.36466843  0.62174002  0.40137921    -0.93000
C1607       C  0.38748999  0.63833185  0.54973844     1.00800
C1608       C  0.37680545  0.58463016  0.48817815     1.13700
C1609       C  0.43704755  0.63765922  0.46964960     1.04500
O1610       O  0.41603998  0.67928537  0.45575567    -0.95100
O1611       O  0.40043131  0.67859621  0.39718222    -0.90900
O1612       O  0.37434145  0.67609394  0.38293968    -0.84000
C1613       C  0.38774728  0.68366572  0.38355845     1.11100
O1614       O  0.41036690  0.59150718  0.39657982    -0.97100
Zr1615     Zr  0.39220339  0.61451094  0.39420300     1.88900
O1616       O  0.36627008  0.64154354  0.34649850    -0.73700
O1617       O  0.42646169  0.65704221  0.38960115    -0.53000
O1618       O  0.41681408  0.61696130  0.36491649    -0.97700
O1619       O  0.37836605  0.59013857  0.37832519    -0.54900
O1620       O  0.38447396  0.62131597  0.34397708    -0.74300
C1621       C  0.37491942  0.63144247  0.33178504     0.98100
O1622       O  0.34375232  0.66634341  0.37216353    -0.63100
O1623       O  0.33706854  0.61295453  0.49207464    -0.57900
O1624       O  0.33503888  0.64839967  0.40935651    -0.94600
O1625       O  0.33065441  0.62518130  0.43478313    -0.93000
O1626       O  0.34592462  0.65504357  0.51530827    -0.93300
O1627       O  0.35460223  0.68027469  0.48250006    -0.92100
C1628       C  0.32570137  0.63803981  0.42179388     1.16900
H1629       H  0.36780318  0.62367037  0.50978312     0.32900
H1630       H  0.37797302  0.67517532  0.43700499     0.43700
H1631       H  0.35759357  0.61696055  0.38662705     0.37300
H1632       H  0.41900263  0.62303280  0.42921171     0.33700
H1633       H  0.37941406  0.68228864  0.52513130     0.25500
H1634       H  0.43401628  0.66553297  0.39614330     0.31500
H1635       H  0.41570776  0.62724754  0.35391539     0.37400
H1636       H  0.34329310  0.64346848  0.51663905     0.31800
H1637       H  0.33015687  0.60374942  0.48653123     0.30700
H1638       H  0.33480060  0.58975855  0.43703291     0.32400
H1639       H  0.37024415  0.59369321  0.36348493     0.31400
H1640       H  0.34841336  0.67872332  0.46377124     0.35400
H1641       H  0.34314982  0.67672577  0.38293595     0.28100
H1642       H  0.42185213  0.60678110  0.52402451     0.32300
H1643       H  0.40988510  0.58647129  0.37651795     0.35200
H1644       H  0.34323727  0.60909656  0.50964556     0.27800
H1645       H  0.34857440  0.66900038  0.35250391     0.40700
H1646       H  0.42018562  0.67521643  0.47513793     0.30700
H1647       H  0.39563485  0.67592897  0.51192890     0.38300
H1648       H  0.37202471  0.58677157  0.39599083     0.30200
H1649       H  0.43269022  0.64692435  0.39125831     0.30200
H1650       H  0.42438999  0.59737863  0.49383540     0.30500
Zr1651     Zr  0.39862655  0.61855731  0.98406396     2.17500
O1652       O  0.41523398  0.59985233  0.01292571    -0.51800
O1653       O  0.39399796  0.62719943  0.03555589    -0.75100
O1654       O  0.42737639  0.62517506  0.98463497    -0.81800
O1655       O  0.36446620  0.58769746  0.97541390    -0.83600
O1656       O  0.43171498  0.64769823  0.95712379    -0.79200
O1657       O  0.38997165  0.59081385  0.99260075    -0.90800
O1658       O  0.37769000  0.64903739  0.03663316    -0.76800
O1659       O  0.39695628  0.64714489  0.98098477    -0.86300
O1660       O  0.37084035  0.62505642  0.98975248    -0.86000
O1661       O  0.40880701  0.62519496  0.93504954    -0.72700
O1662       O  0.38492386  0.60515661  0.94386551    -0.84900
Zr1663     Zr  0.36502149  0.64805363  0.89756662     2.26400
Zr1664     Zr  0.40656800  0.65397275  0.93193395     2.06300
Zr1665     Zr  0.35725456  0.61217521  0.94915705     2.10000
Zr1666     Zr  0.36913042  0.65357911  0.98587373     1.78800
O1667       O  0.34590451  0.59074841  0.91865824    -0.93700
O1668       O  0.37888328  0.67976123  0.00197841    -0.41500
O1669       O  0.35517575  0.64072585  0.94610306    -0.78100
O1670       O  0.37887716  0.66156011  0.93770941    -0.96800
O1671       O  0.39261182  0.64117096  0.89158103    -0.90100
O1672       O  0.36646864  0.61937880  0.90016687    -0.93000
C1673       C  0.38628138  0.63827991  0.04949955     1.00800
C1674       C  0.37717092  0.58240595  0.98850346     1.13700
C1675       C  0.43663446  0.63612143  0.97385425     1.04500
O1676       O  0.41481268  0.67843020  0.95750053    -0.95100
O1677       O  0.40172617  0.67674296  0.89884315    -0.90900
O1678       O  0.37636854  0.67371836  0.88079538    -0.84000
C1679       C  0.38967207  0.68151317  0.88311333     1.11100
O1680       O  0.41156480  0.58916216  0.90025216    -0.97100
Zr1681     Zr  0.39420033  0.61267198  0.89528117     1.88900
O1682       O  0.36788695  0.63850664  0.84619817    -0.73700
O1683       O  0.42792135  0.65474925  0.89455909    -0.53000
O1684       O  0.41988396  0.61669454  0.87017854    -0.97700
O1685       O  0.38220097  0.58773598  0.87732158    -0.54900
O1686       O  0.38684825  0.61892139  0.84435198    -0.74300
C1687       C  0.37686398  0.62857036  0.83185813     0.98100
O1688       O  0.34517309  0.66501825  0.87242172    -0.63100
O1689       O  0.33752238  0.60672257  0.98819378    -0.57900
O1690       O  0.33590039  0.64485029  0.90421299    -0.94600
O1691       O  0.33170939  0.62219027  0.93149862    -0.93000
O1692       O  0.34515927  0.64875124  0.01587099    -0.93300
O1693       O  0.34871334  0.67419600  0.97784811    -0.92100
C1694       C  0.32664170  0.63443190  0.91676657     1.16900
H1695       H  0.36661116  0.62119756  0.00858127     0.32900
H1696       H  0.37758738  0.67307220  0.93652865     0.43700
H1697       H  0.35993427  0.61443218  0.88482450     0.37300
H1698       H  0.41980267  0.62172761  0.93242659     0.33700
H1699       H  0.37233886  0.68240114  0.01982625     0.25500
H1700       H  0.43420516  0.66450496  0.89941166     0.31500
H1701       H  0.41844600  0.62666259  0.85832626     0.37400
H1702       H  0.33647648  0.64682329  0.00111969     0.31800
H1703       H  0.33269739  0.61730594  0.99286786     0.30700
H1704       H  0.34083968  0.58330906  0.93316946     0.32400
H1705       H  0.37439755  0.59097898  0.86167127     0.31400
H1706       H  0.34555748  0.67300150  0.95657772     0.35400
H1707       H  0.34508815  0.67528020  0.88363408     0.28100
H1708       H  0.42103183  0.60640987  0.02794106     0.32300
H1709       H  0.41394261  0.58567533  0.87952858     0.35200
H1710       H  0.32882279  0.60071710  0.97801229     0.27800
H1711       H  0.34985168  0.66769819  0.85265467     0.40700
H1712       H  0.42494966  0.68162194  0.94751767     0.30700
H1713       H  0.38978865  0.67764749  0.01002159     0.38300
H1714       H  0.37546481  0.58393177  0.89415893     0.30200
H1715       H  0.43518282  0.64568716  0.89957049     0.30200
H1716       H  0.42363692  0.59588821  0.99905745     0.30500
Zr1717     Zr  0.40012897  0.88084390  0.15071199     2.17500
O1718       O  0.41822821  0.89976244  0.12594014    -0.51800
O1719       O  0.39593278  0.87356628  0.09790443    -0.75100
O1720       O  0.42870470  0.87318818  0.15221640    -0.81800
O1721       O  0.36544634  0.91099067  0.15413753    -0.83600
O1722       O  0.43216184  0.85129681  0.18192055    -0.79200
O1723       O  0.39195046  0.90883260  0.14251233    -0.90800
O1724       O  0.37865171  0.85255533  0.09539275    -0.76800
O1725       O  0.39834977  0.85223267  0.15351561    -0.86300
O1726       O  0.37253996  0.87439285  0.14222381    -0.86000
O1727       O  0.40869923  0.87392240  0.20081397    -0.72700
O1728       O  0.38528033  0.89407409  0.18978007    -0.84900
Zr1729     Zr  0.36358384  0.85148878  0.23356897     2.26400
Zr1730     Zr  0.40614581  0.84513713  0.20362400     2.06300
Zr1731     Zr  0.35775338  0.88713885  0.18139240     2.10000
Zr1732     Zr  0.37073617  0.84586794  0.14570551     1.78800
O1733       O  0.34617761  0.90953623  0.20907013    -0.93700
O1734       O  0.38345049  0.82091223  0.12962178    -0.41500
O1735       O  0.35539193  0.85860356  0.18397045    -0.78100
O1736       O  0.37858765  0.83787775  0.19499360    -0.96800
O1737       O  0.39105160  0.85790935  0.24254476    -0.90100
O1738       O  0.36536479  0.88005922  0.23142944    -0.93000
C1739       C  0.38752283  0.86326981  0.08316265     1.00800
C1740       C  0.37861842  0.91671424  0.14373233     1.13700
C1741       C  0.43757458  0.86232999  0.16454659     1.04500
O1742       O  0.41444628  0.82067875  0.17804900    -0.95100
O1743       O  0.39999692  0.82265774  0.23655208    -0.90900
O1744       O  0.37414737  0.82604701  0.25155660    -0.84000
C1745       C  0.38739278  0.81813765  0.25088891     1.11100
O1746       O  0.41124824  0.90921755  0.24082369    -0.97100
Zr1747     Zr  0.39299869  0.88632412  0.23931007     1.88900
O1748       O  0.36538939  0.85981968  0.28581725    -0.73700
O1749       O  0.42667495  0.84278204  0.24242513    -0.53000
O1750       O  0.41760613  0.88173797  0.26780492    -0.97700
O1751       O  0.38034841  0.91131181  0.25550942    -0.54900
O1752       O  0.38433806  0.87928385  0.28898934    -0.74300
C1753       C  0.37430964  0.86950835  0.30079470     0.98100
O1754       O  0.34272338  0.83374511  0.25318682    -0.63100
O1755       O  0.33907389  0.89136204  0.13998137    -0.57900
O1756       O  0.33472376  0.85584200  0.22605045    -0.94600
O1757       O  0.33153184  0.87823510  0.19753729    -0.93000
O1758       O  0.34494291  0.84874710  0.12034184    -0.93300
O1759       O  0.35272485  0.82282770  0.14646210    -0.92100
C1760       C  0.32594013  0.86626113  0.21229696     1.16900
H1761       H  0.36866345  0.87845271  0.12326277     0.32900
H1762       H  0.37718187  0.82637602  0.19601266     0.43700
H1763       H  0.35838040  0.88503182  0.24602183     0.37300
H1764       H  0.41965147  0.87725081  0.20448585     0.33700
H1765       H  0.37943353  0.81915509  0.10900818     0.25500
H1766       H  0.43388225  0.83406577  0.23547919     0.31500
H1767       H  0.41623174  0.87097939  0.27694897     0.37400
H1768       H  0.34633902  0.85799945  0.10663168     0.31800
H1769       H  0.33333033  0.88101980  0.13774508     0.30700
H1770       H  0.33764286  0.91384740  0.19580579     0.32400
H1771       H  0.37137346  0.90805481  0.26873145     0.31400
H1772       H  0.34791917  0.82298347  0.16673989     0.35400
H1773       H  0.34385649  0.82349684  0.24212347     0.28100
H1774       H  0.42435794  0.89347548  0.11097229     0.32300
H1775       H  0.41166503  0.91258057  0.26208292     0.35200
H1776       H  0.33085844  0.89887688  0.14784260     0.27800
H1777       H  0.34593221  0.83122059  0.27403479     0.40700
H1778       H  0.42508793  0.81802309  0.18674691     0.30700
H1779       H  0.39495621  0.82359778  0.12698445     0.38300
H1780       H  0.37506428  0.91563079  0.23731697     0.30200
H1781       H  0.43320872  0.85268037  0.24074492     0.30200
H1782       H  0.42622246  0.90302802  0.14121804     0.30500
Zr1783     Zr  0.39895050  0.87975762  0.64817289     2.17500
O1784       O  0.41529053  0.89822505  0.61849060    -0.51800
O1785       O  0.39406905  0.87151999  0.59641625    -0.75100
O1786       O  0.42775915  0.87323251  0.64848586    -0.81800
O1787       O  0.36426447  0.91007211  0.65517777    -0.83600
O1788       O  0.43200815  0.85050261  0.67561771    -0.79200
O1789       O  0.39032253  0.90775730  0.64065243    -0.90800
O1790       O  0.37764244  0.84982792  0.59546426    -0.76800
O1791       O  0.39790074  0.85111191  0.65196229    -0.86300
O1792       O  0.37139168  0.87255944  0.64192761    -0.86000
O1793       O  0.40900812  0.87324839  0.69749464    -0.72700
O1794       O  0.38479217  0.89311911  0.68781319    -0.84900
Zr1795     Zr  0.36531951  0.85027906  0.73464725     2.26400
Zr1796     Zr  0.40710050  0.84449669  0.70150568     2.06300
Zr1797     Zr  0.35734564  0.88555866  0.68175607     2.10000
Zr1798     Zr  0.37034941  0.84399930  0.64641505     1.78800
O1799       O  0.34565693  0.90702863  0.71175571    -0.93700
O1800       O  0.38328345  0.81927367  0.62969756    -0.41500
O1801       O  0.35576889  0.85693737  0.68552479    -0.78100
O1802       O  0.37958396  0.83658701  0.69518495    -0.96800
O1803       O  0.39280410  0.85743857  0.74116639    -0.90100
O1804       O  0.36646492  0.87889167  0.73111746    -0.93000
C1805       C  0.38607861  0.86063086  0.58249540     1.00800
C1806       C  0.37713765  0.91579795  0.64342620     1.13700
C1807       C  0.43695891  0.86213825  0.65912388     1.04500
O1808       O  0.41742322  0.81979487  0.67947307    -0.95100
O1809       O  0.40203684  0.82166424  0.73452817    -0.90900
O1810       O  0.37660078  0.82475733  0.75201678    -0.84000
C1811       C  0.38989446  0.81691285  0.75000156     1.11100
O1812       O  0.41245657  0.90842601  0.72957154    -0.97100
Zr1813     Zr  0.39408456  0.88590604  0.73662466     1.88900
O1814       O  0.36794186  0.85980604  0.78625449    -0.73700
O1815       O  0.42758117  0.84581406  0.74046263    -0.53000
O1816       O  0.41909815  0.88253247  0.76445472    -0.97700
O1817       O  0.38215517  0.91101209  0.75404086    -0.54900
O1818       O  0.38625708  0.87994692  0.78731627    -0.74300
C1819       C  0.37661229  0.87016575  0.80021511     0.98100
O1820       O  0.34528588  0.83306760  0.75840578    -0.63100
O1821       O  0.33831576  0.88973999  0.64088525    -0.57900
O1822       O  0.33623069  0.85366553  0.72796842    -0.94600
O1823       O  0.33173949  0.87595052  0.69965551    -0.93000
O1824       O  0.34484497  0.84625476  0.61984505    -0.93300
O1825       O  0.35294185  0.82060332  0.65143438    -0.92100
C1826       C  0.32685874  0.86384021  0.71491553     1.16900
H1827       H  0.36706597  0.87626918  0.62306684     0.32900
H1828       H  0.37846608  0.82506844  0.69657831     0.43700
H1829       H  0.35976775  0.88384896  0.74616513     0.37300
H1830       H  0.41995599  0.87679636  0.70032096     0.33700
H1831       H  0.37786440  0.81658006  0.61060252     0.25500
H1832       H  0.43432100  0.83615003  0.73721425     0.31500
H1833       H  0.41764064  0.88889482  0.78297497     0.37400
H1834       H  0.33680399  0.84859817  0.63559751     0.31800
H1835       H  0.33179461  0.87980332  0.64016096     0.30700
H1836       H  0.34074899  0.91449114  0.69705371     0.32400
H1837       H  0.37245019  0.90786509  0.76543658     0.31400
H1838       H  0.35206588  0.81874909  0.67327496     0.35400
H1839       H  0.34589199  0.82262223  0.74785142     0.28100
H1840       H  0.42137316  0.89148598  0.60415381     0.32300
H1841       H  0.41351422  0.91357906  0.74944455     0.35200
H1842       H  0.33082752  0.89809533  0.64831179     0.27800
H1843       H  0.34940544  0.83088223  0.77882706     0.40700
H1844       H  0.40773222  0.81331263  0.67505577     0.30700
H1845       H  0.39427336  0.82251367  0.62370560     0.38300
H1846       H  0.37792119  0.91621682  0.73569146     0.30200
H1847       H  0.43457314  0.85493489  0.73473843     0.30200
H1848       H  0.42348235  0.90260767  0.63235898     0.30500
Zr1849     Zr  0.35291634  0.13787794  0.02540771     2.17500
O1850       O  0.33319317  0.15447423  0.99904128    -0.51800
O1851       O  0.36183128  0.13480395  0.97361559    -0.75100
O1852       O  0.35919933  0.16673525  0.02665935    -0.81800
O1853       O  0.32281476  0.10276582  0.02975390    -0.83600
O1854       O  0.38271783  0.17009733  0.05177011    -0.79200
O1855       O  0.32604080  0.12829667  0.01282149    -0.90800
O1856       O  0.38098768  0.11544640  0.97124769    -0.76800
O1857       O  0.38147645  0.13552930  0.02675302    -0.86300
O1858       O  0.35881342  0.10999286  0.01923462    -0.86000
O1859       O  0.36031487  0.14763605  0.07438013    -0.72700
O1860       O  0.33958206  0.12421676  0.06593562    -0.84900
Zr1861     Zr  0.38299369  0.10397685  0.11077513     2.26400
Zr1862     Zr  0.38909739  0.14481175  0.07550803     2.06300
Zr1863     Zr  0.34625384  0.09645270  0.06035575     2.10000
Zr1864     Zr  0.38731323  0.10761891  0.02177220     1.78800
O1865       O  0.32267557  0.08873747  0.08927582    -0.93700
O1866       O  0.41230481  0.11851148  0.00176637    -0.41500
O1867       O  0.37489881  0.09399037  0.06268754    -0.78100
O1868       O  0.39603636  0.11708259  0.06944013    -0.96800
O1869       O  0.37647957  0.13158345  0.11687403    -0.90100
O1870       O  0.35429554  0.10561082  0.10893866    -0.93000
C1871       C  0.37156840  0.12572388  0.95903794     1.00800
C1872       C  0.31794259  0.11520384  0.01521794     1.13700
C1873       C  0.37060147  0.17554987  0.03716616     1.04500
O1874       O  0.41285719  0.15258347  0.04713264    -0.95100
O1875       O  0.41257588  0.13926422  0.10598092    -0.90900
O1876       O  0.40970988  0.11409931  0.12495775    -0.84000
C1877       C  0.41778639  0.12712400  0.12089605     1.11100
O1878       O  0.32426987  0.15041731  0.10796304    -0.97100
Zr1879     Zr  0.34787442  0.13328642  0.11440952     1.88900
O1880       O  0.37590882  0.10847497  0.16310056    -0.73700
O1881       O  0.39235969  0.16595961  0.11267643    -0.53000
O1882       O  0.35090533  0.15902423  0.13974996    -0.97700
O1883       O  0.32365166  0.12147176  0.13596756    -0.54900
O1884       O  0.35563620  0.12671819  0.16508047    -0.74300
C1885       C  0.36605422  0.11750688  0.17753966     0.98100
O1886       O  0.40119491  0.08259280  0.12683109    -0.63100
O1887       O  0.34306809  0.07452048  0.02471850    -0.57900
O1888       O  0.37573427  0.07571844  0.11313698    -0.94600
O1889       O  0.35438633  0.07107304  0.08250730    -0.93000
O1890       O  0.38349723  0.08166397  0.99771412    -0.93300
O1891       O  0.40995611  0.08909449  0.02511193    -0.92100
C1892       C  0.36542415  0.06636928  0.10069424     1.16900
H1893       H  0.35464874  0.10599639  0.00048024     0.32900
H1894       H  0.40753516  0.11549849  0.06987493     0.43700
H1895       H  0.34955015  0.09910768  0.12454139     0.37300
H1896       H  0.35707608  0.15862163  0.07775590     0.33700
H1897       H  0.40913498  0.12848704  0.99116232     0.25500
H1898       H  0.40025281  0.17347108  0.10376238     0.31500
H1899       H  0.36158308  0.15844206  0.14953649     0.37400
H1900       H  0.37686233  0.07540193  0.01194547     0.31800
H1901       H  0.33243346  0.06980860  0.02940383     0.30700
H1902       H  0.31838777  0.07915621  0.07887555     0.32400
H1903       H  0.32729043  0.11194600  0.14743743     0.31400
H1904       H  0.41075001  0.08640352  0.04666998     0.35400
H1905       H  0.41043277  0.08308859  0.11287338     0.28100
H1906       H  0.33925035  0.16015368  0.98315100     0.32300
H1907       H  0.32023126  0.15260761  0.12841036     0.35200
H1908       H  0.34158568  0.07973703  0.00496831     0.27800
H1909       H  0.40554671  0.08597711  0.14647511     0.40700
H1910       H  0.40924844  0.15300615  0.02601536     0.30700
H1911       H  0.41839778  0.12227038  0.01946565     0.38300
H1912       H  0.31771111  0.11701231  0.11866022     0.30200
H1913       H  0.38204932  0.17193479  0.11242248     0.30200
H1914       H  0.32983552  0.16295074  0.01327286     0.30500
Zr1915     Zr  0.35372814  0.13919433  0.52594401     2.17500
O1916       O  0.33240562  0.15663433  0.50675575    -0.51800
O1917       O  0.36253382  0.13696332  0.47379335    -0.75100
O1918       O  0.36014702  0.16802974  0.52751028    -0.81800
O1919       O  0.32488335  0.10333609  0.52613371    -0.83600
O1920       O  0.38228103  0.17161709  0.55663245    -0.79200
O1921       O  0.32764126  0.12909195  0.51004185    -0.90800
O1922       O  0.38345522  0.11946858  0.47199409    -0.76800
O1923       O  0.38232304  0.13763599  0.52882323    -0.86300
O1924       O  0.36049094  0.11160932  0.51822430    -0.86000
O1925       O  0.36029428  0.14815181  0.57572776    -0.72700
O1926       O  0.34039253  0.12423043  0.56488173    -0.84900
Zr1927     Zr  0.38357933  0.10416865  0.61047104     2.26400
Zr1928     Zr  0.38907219  0.14596467  0.57867907     2.06300
Zr1929     Zr  0.34794308  0.09678727  0.55776037     2.10000
Zr1930     Zr  0.38896719  0.11005306  0.52182157     1.78800
O1931       O  0.32477309  0.08815582  0.58688549    -0.93700
O1932       O  0.41416684  0.12227971  0.50577175    -0.41500
O1933       O  0.37664799  0.09493170  0.56114512    -0.78100
O1934       O  0.39685054  0.11853382  0.57056647    -0.96800
O1935       O  0.37627313  0.13146606  0.61832810    -0.90100
O1936       O  0.35489351  0.10531007  0.60732968    -0.93000
C1937       C  0.37331874  0.12893469  0.45954966     1.00800
C1938       C  0.31984863  0.11580045  0.51181619     1.13700
C1939       C  0.37080134  0.17695830  0.54018178     1.04500
O1940       O  0.41227757  0.15746218  0.55333566    -0.95100
O1941       O  0.41277089  0.13986388  0.60840104    -0.90900
O1942       O  0.41042454  0.11399022  0.62393943    -0.84000
C1943       C  0.41826501  0.12725543  0.62154215     1.11100
O1944       O  0.32468247  0.15065889  0.60777162    -0.97100
Zr1945     Zr  0.34773509  0.13279275  0.61415328     1.88900
O1946       O  0.37546575  0.10830059  0.66251304    -0.73700
O1947       O  0.39025316  0.16524241  0.61962031    -0.53000
O1948       O  0.35216572  0.15783278  0.64114408    -0.97700
O1949       O  0.32312659  0.12128388  0.63471881    -0.54900
O1950       O  0.35395017  0.12501365  0.66464511    -0.74300
C1951       C  0.36475395  0.11627733  0.67697824     0.98100
O1952       O  0.39992793  0.08389455  0.63588633    -0.63100
O1953       O  0.34451118  0.07493554  0.52200090    -0.57900
O1954       O  0.37843219  0.07530606  0.60724355    -0.94600
O1955       O  0.35687581  0.07098859  0.57704911    -0.93000
O1956       O  0.38486413  0.08562991  0.49288906    -0.93300
O1957       O  0.41159656  0.09139447  0.52256107    -0.92100
C1958       C  0.36823929  0.06600904  0.59424746     1.16900
H1959       H  0.35669697  0.10784270  0.49903112     0.32900
H1960       H  0.40837941  0.11724424  0.57066733     0.43700
H1961       H  0.35003917  0.09846615  0.62225917     0.37300
H1962       H  0.35672853  0.15903054  0.57925175     0.33700
H1963       H  0.41654902  0.11728743  0.48615369     0.25500
H1964       H  0.39909225  0.17263411  0.61408690     0.31500
H1965       H  0.34586973  0.15675914  0.65984472     0.37400
H1966       H  0.37928783  0.07820906  0.50676417     0.31800
H1967       H  0.33295593  0.07211499  0.52297978     0.30700
H1968       H  0.32109718  0.07819121  0.57693051     0.32400
H1969       H  0.32651914  0.11141430  0.64542337     0.31400
H1970       H  0.41728804  0.09359509  0.54159488     0.35400
H1971       H  0.40996901  0.08298339  0.62408502     0.28100
H1972       H  0.33734582  0.16325140  0.49078052     0.32300
H1973       H  0.32061830  0.15281018  0.62821235     0.35200
H1974       H  0.34589884  0.07992967  0.50204103     0.27800
H1975       H  0.40322840  0.08877141  0.65514685     0.40700
H1976       H  0.41949485  0.14821366  0.54953472     0.30700
H1977       H  0.41133489  0.13353587  0.50080434     0.38300
H1978       H  0.31711925  0.11733590  0.61705910     0.30200
H1979       H  0.38036277  0.17179657  0.61752928     0.30200
H1980       H  0.32983222  0.16423557  0.52311552     0.30500
Zr1981     Zr  0.15093789  0.13857964  0.36189043     2.17500
O1982       O  0.17051378  0.15551318  0.38763214    -0.51800
O1983       O  0.14080970  0.13635982  0.41326938    -0.75100
O1984       O  0.14516174  0.16759785  0.35806273    -0.81800
O1985       O  0.18048198  0.10239739  0.36156778    -0.83600
O1986       O  0.12305053  0.17108608  0.32874382    -0.79200
O1987       O  0.17694801  0.12790408  0.37849973    -0.90800
O1988       O  0.12113697  0.11757756  0.41426194    -0.76800
O1989       O  0.12238497  0.13714222  0.35715774    -0.86300
O1990       O  0.14401380  0.11103875  0.36910040    -0.86000
O1991       O  0.14533787  0.14739060  0.31134679    -0.72700
O1992       O  0.16502472  0.12367110  0.32384973    -0.84900
Zr1993     Zr  0.12244361  0.10369547  0.27587123     2.26400
Zr1994     Zr  0.11655357  0.14544047  0.30676340     2.06300
Zr1995     Zr  0.15729634  0.09622789  0.33049159     2.10000
Zr1996     Zr  0.11558744  0.10959034  0.36389407     1.78800
O1997       O  0.18085792  0.08692882  0.30319085    -0.93700
O1998       O  0.09113588  0.12312906  0.38048582    -0.41500
O1999       O  0.12869547  0.09452018  0.32555769    -0.78100
O2000       O  0.10851891  0.11812678  0.31472509    -0.96800
O2001       O  0.13008057  0.13089573  0.26812856    -0.90100
O2002       O  0.15105338  0.10452013  0.28042633    -0.93000
C2003       C  0.13057170  0.12749407  0.42714963     1.00800
C2004       C  0.18504494  0.11473147  0.37657947     1.13700
C2005       C  0.13448773  0.17648457  0.34513411     1.04500
O2006       O  0.09266674  0.15633543  0.33087697    -0.95100
O2007       O  0.09352435  0.13953645  0.27505925    -0.90900
O2008       O  0.09606820  0.11366261  0.25968158    -0.84000
C2009       C  0.08825501  0.12698544  0.26153912     1.11100
O2010       O  0.18188892  0.14941214  0.27937558    -0.97100
Zr2011     Zr  0.15859037  0.13186717  0.27381157     1.88900
O2012       O  0.13079659  0.10803235  0.22404979    -0.73700
O2013       O  0.11540392  0.16484641  0.26591535    -0.53000
O2014       O  0.15727499  0.15699360  0.24577277    -0.97700
O2015       O  0.18345135  0.11861725  0.25837119    -0.54900
O2016       O  0.15240711  0.12461237  0.22278905    -0.74300
C2017       C  0.14156206  0.11613524  0.20995490     0.98100
O2018       O  0.10520667  0.08259508  0.25571093    -0.63100
O2019       O  0.15927928  0.07519257  0.36841864    -0.57900
O2020       O  0.12868139  0.07508429  0.27732569    -0.94600
O2021       O  0.14870091  0.07052378  0.31095986    -0.93000
O2022       O  0.11781545  0.08499027  0.39321790    -0.93300
O2023       O  0.09267757  0.09154305  0.35924036    -0.92100
C2024       C  0.13819210  0.06571058  0.29192449     1.16900
H2025       H  0.14753156  0.10720418  0.38846156     0.32900
H2026       H  0.09699237  0.11689306  0.31371350     0.43700
H2027       H  0.15598069  0.09751229  0.26584684     0.37300
H2028       H  0.14900152  0.15820060  0.30761883     0.33700
H2029       H  0.08662140  0.11606022  0.39622111     0.25500
H2030       H  0.10641550  0.17212342  0.27124168     0.31500
H2031       H  0.14689673  0.15657036  0.23491472     0.37400
H2032       H  0.12510795  0.07801475  0.38146992     0.31800
H2033       H  0.16964442  0.06975180  0.36429701     0.30700
H2034       H  0.18287685  0.07595100  0.31092944     0.32400
H2035       H  0.18026076  0.10815254  0.24974367     0.31400
H2036       H  0.09294777  0.08790613  0.33814863     0.35400
H2037       H  0.09521137  0.08293573  0.26775036     0.28100
H2038       H  0.16428259  0.16201941  0.40212139     0.32300
H2039       H  0.18720092  0.14963703  0.25953494     0.35200
H2040       H  0.16102518  0.08085610  0.38761956     0.27800
H2041       H  0.10200616  0.08623853  0.23543849     0.40700
H2042       H  0.08641298  0.14677530  0.33704318     0.30700
H2043       H  0.09489859  0.13273792  0.39149644     0.38300
H2044       H  0.18900885  0.11586507  0.27732189     0.30200
H2045       H  0.12518915  0.17149189  0.26827232     0.30200
H2046       H  0.17449383  0.16326572  0.37252154     0.30500
Zr2047     Zr  0.15106663  0.13833038  0.85985611     2.17500
O2048       O  0.17337642  0.15570995  0.87445194    -0.51800
O2049       O  0.14286251  0.13674945  0.91239882    -0.75100
O2050       O  0.14461690  0.16708660  0.85935785    -0.81800
O2051       O  0.17979765  0.10184809  0.85994093    -0.83600
O2052       O  0.12211162  0.17089164  0.83133023    -0.79200
O2053       O  0.17628157  0.12713466  0.87795818    -0.90800
O2054       O  0.12271759  0.11847193  0.91504930    -0.76800
O2055       O  0.12242316  0.13716598  0.85763735    -0.86300
O2056       O  0.14415102  0.11089869  0.86832512    -0.86000
O2057       O  0.14438705  0.14725131  0.81001741    -0.72700
O2058       O  0.16406908  0.12311295  0.82097215    -0.84900
Zr2059     Zr  0.12050725  0.10396333  0.77647874     2.26400
Zr2060     Zr  0.11554353  0.14561394  0.80789961     2.06300
Zr2061     Zr  0.15630889  0.09576551  0.82894297     2.10000
Zr2062     Zr  0.11568212  0.10964799  0.86524613     1.78800
O2063       O  0.18014569  0.08469064  0.80489742    -0.93700
O2064       O  0.09129555  0.12084617  0.88722632    -0.41500
O2065       O  0.12757344  0.09443674  0.82564170    -0.78100
O2066       O  0.10759460  0.11838827  0.81659873    -0.96800
O2067       O  0.12810360  0.13107427  0.76802658    -0.90100
O2068       O  0.14919577  0.10430127  0.77922248    -0.93000
C2069       C  0.13269701  0.12821451  0.92717370     1.00800
C2070       C  0.18432392  0.11399347  0.87565825     1.13700
C2071       C  0.13378555  0.17609396  0.84735884     1.04500
O2072       O  0.09135007  0.15617349  0.83149784    -0.95100
O2073       O  0.09204752  0.13985338  0.77748695    -0.90900
O2074       O  0.09387364  0.11389864  0.76248480    -0.84000
C2075       C  0.08633429  0.12734463  0.76450244     1.11100
O2076       O  0.18063218  0.14834141  0.77550107    -0.97100
Zr2077     Zr  0.15672782  0.13153155  0.77153339     1.88900
O2078       O  0.12760346  0.10819441  0.72400857    -0.73700
O2079       O  0.11453196  0.16593389  0.76863194    -0.53000
O2080       O  0.15509909  0.15651223  0.74306220    -0.97700
O2081       O  0.18076658  0.11745429  0.75430757    -0.54900
O2082       O  0.14971839  0.12396957  0.72103378    -0.74300
C2083       C  0.13837677  0.11580092  0.70906970     0.98100
O2084       O  0.10314875  0.08331292  0.75502777    -0.63100
O2085       O  0.15571230  0.07527958  0.86808107    -0.57900
O2086       O  0.12634475  0.07542881  0.77709537    -0.94600
O2087       O  0.14804075  0.07050495  0.80671126    -0.93000
O2088       O  0.11974203  0.08368008  0.88935185    -0.93300
O2089       O  0.09157637  0.09309973  0.86248697    -0.92100
C2090       C  0.13666413  0.06595404  0.78922302     1.16900
H2091       H  0.14805457  0.10713991  0.88748306     0.32900
H2092       H  0.09604307  0.11728954  0.81639446     0.43700
H2093       H  0.15381403  0.09725531  0.76432044     0.37300
H2094       H  0.14794492  0.15814188  0.80661020     0.33700
H2095       H  0.09016476  0.11532082  0.90677409     0.25500
H2096       H  0.10740806  0.17444894  0.77665463     0.31500
H2097       H  0.14570505  0.15519766  0.72964577     0.37400
H2098       H  0.11834838  0.08579603  0.91099965     0.31800
H2099       H  0.16305875  0.06672941  0.86094238     0.30700
H2100       H  0.18061175  0.07335353  0.81162929     0.32400
H2101       H  0.17691020  0.10897313  0.74055531     0.31400
H2102       H  0.09063371  0.09014829  0.84108865     0.35400
H2103       H  0.09331580  0.08316432  0.76753088     0.28100
H2104       H  0.16943165  0.16224545  0.89145193     0.32300
H2105       H  0.18545907  0.14848548  0.75523379     0.35200
H2106       H  0.16135886  0.08005328  0.88543569     0.27800
H2107       H  0.09963363  0.08748256  0.73528666     0.40700
H2108       H  0.09206639  0.15260877  0.85260325     0.30700
H2109       H  0.09414764  0.13203005  0.89253514     0.38300
H2110       H  0.18474076  0.11157413  0.77212749     0.30200
H2111       H  0.12538838  0.17080632  0.76858832     0.30200
H2112       H  0.17488961  0.16339067  0.85772606     0.30500
C2113       C  0.12987350  0.12790357  0.46028936    -0.03900
C2114       C  0.11994811  0.11687366  0.47556639    -0.09600
C2115       C  0.12035882  0.11574093  0.50667232    -0.17300
C2116       C  0.13057748  0.12566255  0.52313157     0.24900
C2117       C  0.14010208  0.13708233  0.50838227    -0.19000
C2118       C  0.13977665  0.13820575  0.47708023    -0.07900
C2119       C  0.13169352  0.12355891  0.55501304    -0.14300
C2120       C  0.13276780  0.12127403  0.58158501    -0.14000
C2121       C  0.13446618  0.11880867  0.61330862     0.24800
C2122       C  0.14871052  0.12335230  0.62760161    -0.19400
C2123       C  0.15016945  0.12187069  0.65863853    -0.07900
C2124       C  0.13738473  0.11575397  0.67588868    -0.04000
C2125       C  0.12326567  0.11075072  0.66117466    -0.09300
C2126       C  0.12181504  0.11231445  0.63006920    -0.16900
H2127       H  0.11215875  0.10871577  0.46349208     0.11200
H2128       H  0.11293939  0.10687297  0.51784355     0.10500
H2129       H  0.14803962  0.14485084  0.52101711     0.10400
H2130       H  0.14753612  0.14681541  0.46605727     0.10900
H2131       H  0.15859502  0.12833185  0.61481273     0.11000
H2132       H  0.16122193  0.12579451  0.66917029     0.11000
H2133       H  0.11316539  0.10608844  0.67375938     0.11100
H2134       H  0.11073221  0.10873842  0.61918435     0.09900
C2135       C  0.14109945  0.11633505  0.17669109    -0.03900
C2136       C  0.12799822  0.10968603  0.16102764    -0.09600
C2137       C  0.12687924  0.11125329  0.12986429    -0.17300
C2138       C  0.13884516  0.11942311  0.11389500     0.24900
C2139       C  0.15207862  0.12576736  0.12917862    -0.19000
C2140       C  0.15321311  0.12425643  0.16029535    -0.07900
C2141       C  0.13741787  0.12166436  0.08195966    -0.14300
C2142       C  0.13629447  0.12380958  0.05528213    -0.14000
C2143       C  0.13481044  0.12607717  0.02335800     0.24800
C2144       C  0.14588514  0.13558100  0.00765426    -0.19400
C2145       C  0.14487889  0.13696494  0.97638808    -0.07900
C2146       C  0.13277041  0.12880013  0.96046220    -0.04000
C2147       C  0.12135990  0.11980002  0.97671544    -0.09300
C2148       C  0.12242058  0.11841485  0.00780996    -0.16900
H2149       H  0.11840519  0.10362071  0.17289057     0.11200
H2150       H  0.11656188  0.10629845  0.11828977     0.10500
H2151       H  0.16142076  0.13210373  0.11708412     0.10400
H2152       H  0.16345902  0.12955304  0.17153330     0.10900
H2153       H  0.15549694  0.14163825  0.01949930     0.11000
H2154       H  0.15385879  0.14397324  0.96466735     0.11000
H2155       H  0.11181096  0.11339979  0.96535297     0.11100
H2156       H  0.11372937  0.11109626  0.01966520     0.09900
C2157       C  0.30396350  0.11486004  0.49643674    -0.03900
C2158       C  0.29407239  0.10124316  0.49980478    -0.09600
C2159       C  0.27913988  0.10038292  0.48530619    -0.17300
C2160       C  0.27384425  0.11307038  0.46712754     0.24900
C2161       C  0.28355055  0.12669245  0.46372597    -0.19000
C2162       C  0.29846623  0.12760442  0.47824094    -0.07900
C2163       C  0.25850961  0.11213713  0.45187804    -0.14300
C2164       C  0.24570989  0.11179369  0.43895229    -0.14000
C2165       C  0.23037177  0.11215649  0.42360531     0.24800
C2166       C  0.21864377  0.12335129  0.43209011    -0.19400
C2167       C  0.20395629  0.12418772  0.41678441    -0.07900
C2168       C  0.20066875  0.11373487  0.39280663    -0.04000
C2169       C  0.21243942  0.10234072  0.38466082    -0.09300
C2170       C  0.22720692  0.10162449  0.39985906    -0.16900
H2171       H  0.29784353  0.09123972  0.51369267     0.11200
H2172       H  0.27174381  0.08978857  0.48822478     0.10500
H2173       H  0.27960675  0.13661453  0.44977218     0.10400
H2174       H  0.30570878  0.13827670  0.47506889     0.10900
H2175       H  0.22089601  0.13154166  0.45044980     0.11000
H2176       H  0.19512488  0.13297676  0.42385083     0.11000
H2177       H  0.21032317  0.09413328  0.36628289     0.11100
H2178       H  0.23617368  0.09291661  0.39298914     0.09900
C2179       C  0.37168917  0.12663596  0.92590146    -0.03900
C2180       C  0.38348884  0.11824369  0.90953259    -0.09600
C2181       C  0.38285711  0.11771066  0.87833734    -0.17300
C2182       C  0.37046657  0.12555581  0.86298593     0.24900
C2183       C  0.35890894  0.13431989  0.87890543    -0.19000
C2184       C  0.35952683  0.13490712  0.91020699    -0.07900
C2185       C  0.36931991  0.12399122  0.83101951    -0.14300
C2186       C  0.36838658  0.12201701  0.80436782    -0.14000
C2187       C  0.36714479  0.11951291  0.77262446     0.24800
C2188       C  0.35303376  0.12383128  0.75757171    -0.19400
C2189       C  0.35202894  0.12213638  0.72654155    -0.07900
C2190       C  0.36515462  0.11607094  0.71010866    -0.04000
C2191       C  0.37909372  0.11121814  0.72557996    -0.09300
C2192       C  0.38008723  0.11299151  0.75667026    -0.16900
H2193       H  0.39306671  0.11179802  0.92083124     0.11200
H2194       H  0.39186615  0.11090810  0.86622059     0.10500
H2195       H  0.34924904  0.14042372  0.86717427     0.10400
H2196       H  0.35023636  0.14142185  0.92209956     0.10900
H2197       H  0.34290981  0.12878521  0.76974726     0.11000
H2198       H  0.34108491  0.12590579  0.71535274     0.11000
H2199       H  0.38942357  0.10659602  0.71358377     0.11100
H2200       H  0.39104809  0.10955501  0.76818417     0.09900
C2201       C  0.36706132  0.11786712  0.21072820    -0.03900
C2202       C  0.35722754  0.12847355  0.22715491    -0.09600
C2203       C  0.35897969  0.12989207  0.25812592    -0.17300
C2204       C  0.37052206  0.12072807  0.27326159     0.24900
C2205       C  0.38014600  0.10987979  0.25733793    -0.19000
C2206       C  0.37843719  0.10844359  0.22625490    -0.07900
C2207       C  0.37246691  0.12267169  0.30507734    -0.14300
C2208       C  0.37342190  0.12475058  0.33173172    -0.14000
C2209       C  0.37386466  0.12716470  0.36362703     0.24800
C2210       C  0.38760560  0.12296639  0.37993667    -0.19400
C2211       C  0.38764199  0.12429715  0.41109874    -0.07900
C2212       C  0.37390991  0.12985380  0.42644778    -0.04000
C2213       C  0.36035333  0.13461237  0.40978518    -0.09300
C2214       C  0.36033288  0.13321460  0.37854657    -0.16900
H2215       H  0.34835892  0.13594643  0.21604836     0.11200
H2216       H  0.35143794  0.13829176  0.27023643     0.10500
H2217       H  0.38909192  0.10268064  0.26887515     0.10400
H2218       H  0.38620642  0.10017757  0.21436463     0.10900
H2219       H  0.39816443  0.11832356  0.36864651     0.11000
H2220       H  0.39830981  0.12058564  0.42324554     0.11000
H2221       H  0.34956507  0.13878226  0.42092826     0.11100
H2222       H  0.34962835  0.13649842  0.36608360     0.09900
C2223       C  0.30205261  0.11439831  0.99979868    -0.03900
C2224       C  0.29231156  0.10059593  0.00198667    -0.09600
C2225       C  0.27763778  0.09971691  0.98656199    -0.17300
C2226       C  0.27244921  0.11258607  0.96870426     0.24900
C2227       C  0.28200170  0.12637676  0.96650815    -0.19000
C2228       C  0.29664663  0.12730050  0.98191050    -0.07900
C2229       C  0.25732245  0.11174449  0.95273710    -0.14300
C2230       C  0.24465111  0.11150537  0.93937584    -0.14000
C2231       C  0.22943593  0.11185628  0.92362179     0.24800
C2232       C  0.21882609  0.12471449  0.92794200    -0.19400
C2233       C  0.20418768  0.12530632  0.91249436    -0.07900
C2234       C  0.19983868  0.11301558  0.89235247    -0.04000
C2235       C  0.21052015  0.10003190  0.88835528    -0.09300
C2236       C  0.22521810  0.09949342  0.90383290    -0.16900
H2237       H  0.29605198  0.09042624  0.01547986     0.11200
H2238       H  0.27036211  0.08897573  0.98851188     0.10500
H2239       H  0.27814729  0.13643253  0.95280405     0.10400
H2240       H  0.30378718  0.13809754  0.97955395     0.10900
H2241       H  0.22189245  0.13434868  0.94320249     0.11000
H2242       H  0.19628195  0.13544900  0.91636463     0.11000
H2243       H  0.20760009  0.09036828  0.87309029     0.11100
H2244       H  0.23331540  0.08946214  0.90027404     0.09900
C2245       C  0.37676020  0.93292047  0.63354598    -0.03900
C2246       C  0.36205735  0.94137228  0.63242289    -0.09600
C2247       C  0.36166892  0.95776667  0.62542767    -0.17300
C2248       C  0.37593468  0.96606472  0.61945348     0.24900
C2249       C  0.39060429  0.95772520  0.61975336    -0.19000
C2250       C  0.39102496  0.94126218  0.62664300    -0.07900
C2251       C  0.37544105  0.98319837  0.61402510    -0.14300
C2252       C  0.37446974  0.99757718  0.61036793    -0.14000
C2253       C  0.37291042  0.01476351  0.60649565     0.24800
C2254       C  0.35964304  0.02115113  0.59121295    -0.19400
C2255       C  0.35809333  0.03778330  0.58740132    -0.07900
C2256       C  0.36978277  0.04835485  0.59893042    -0.04000
C2257       C  0.38304052  0.04181344  0.61443706    -0.09300
C2258       C  0.38457784  0.02515257  0.61814961    -0.16900
H2259       H  0.35082017  0.93537389  0.63739343     0.11200
H2260       H  0.35023234  0.96403700  0.62518479     0.10500
H2261       H  0.40174442  0.96399500  0.61514557     0.10400
H2262       H  0.40254684  0.93517972  0.62731543     0.10900
H2263       H  0.35049210  0.01326872  0.58216710     0.11000
H2264       H  0.34771803  0.04234343  0.57538882     0.11000
H2265       H  0.39229941  0.04953981  0.62352290     0.11100
H2266       H  0.39489152  0.02037332  0.63007295     0.09900
C2267       C  0.37828812  0.93373566  0.13387977    -0.03900
C2268       C  0.36342171  0.94144526  0.12889499    -0.09600
C2269       C  0.36272650  0.95794818  0.12341504    -0.17300
C2270       C  0.37684666  0.96703321  0.12281892     0.24900
C2271       C  0.39176826  0.95941157  0.12647420    -0.19000
C2272       C  0.39250855  0.94282312  0.13184750    -0.07900
C2273       C  0.37581787  0.98422726  0.11967031    -0.14300
C2274       C  0.37412302  0.99857950  0.11749488    -0.14000
C2275       C  0.37147282  0.01560065  0.11436528     0.24800
C2276       C  0.37996158  0.02650057  0.13220545    -0.19400
C2277       C  0.37768374  0.04304192  0.12839516    -0.07900
C2278       C  0.36682731  0.04889181  0.10670217    -0.04000
C2279       C  0.35811120  0.03779400  0.08934330    -0.09300
C2280       C  0.36045139  0.02128378  0.09314325    -0.16900
H2281       H  0.35225000  0.93479058  0.12999135     0.11200
H2282       H  0.35112313  0.96369122  0.12041155     0.10500
H2283       H  0.40278497  0.96634285  0.12593379     0.10400
H2284       H  0.40412343  0.93725644  0.13560832     0.10900
H2285       H  0.38848282  0.02222556  0.14879034     0.11000
H2286       H  0.38459101  0.05122875  0.14214241     0.11000
H2287       H  0.34975034  0.04184519  0.07230555     0.11100
H2288       H  0.35379989  0.01294603  0.07924937     0.09900
C2289       C  0.37603341  0.87071201  0.83345793    -0.03900
C2290       C  0.36748530  0.85915071  0.85009277    -0.09600
C2291       C  0.36854667  0.85886979  0.88143616    -0.17300
C2292       C  0.37812460  0.87013058  0.89648354     0.24900
C2293       C  0.38613645  0.88200683  0.88019165    -0.19000
C2294       C  0.38510173  0.88232514  0.84900804    -0.07900
C2295       C  0.38036504  0.86919918  0.92845785    -0.14300
C2296       C  0.38259256  0.86836003  0.95513443    -0.14000
C2297       C  0.38449743  0.86682073  0.98710773     0.24800
C2298       C  0.37387312  0.85704573  0.00302616    -0.19400
C2299       C  0.37519052  0.85566755  0.03406042    -0.07900
C2300       C  0.38716399  0.86411734  0.04991149    -0.04000
C2301       C  0.39792547  0.87386025  0.03371941    -0.09300
C2302       C  0.39662609  0.87514785  0.00245592    -0.16900
H2303       H  0.36038477  0.85005662  0.83890515     0.11200
H2304       H  0.36221982  0.84964725  0.89385941     0.10500
H2305       H  0.39351343  0.89082512  0.89155846     0.10400
H2306       H  0.39178118  0.89147301  0.83707034     0.10900
H2307       H  0.36442429  0.85058371  0.99145537     0.11000
H2308       H  0.36655394  0.84819501  0.04568226     0.11000
H2309       H  0.40722837  0.88055548  0.04519407     0.11100
H2310       H  0.40494463  0.88275893  0.99033038     0.09900
C2311       C  0.37370694  0.86908753  0.33394008    -0.03900
C2312       C  0.36599384  0.85647127  0.34925032    -0.09600
C2313       C  0.36729283  0.85517934  0.38042640    -0.17300
C2314       C  0.37625433  0.86648278  0.39655887     0.24900
C2315       C  0.38349427  0.87933063  0.38164495    -0.19000
C2316       C  0.38223226  0.88064890  0.35061445    -0.07900
C2317       C  0.37852571  0.86473816  0.42828030    -0.14300
C2318       C  0.38080715  0.86359468  0.45482191    -0.14000
C2319       C  0.38313623  0.86236283  0.48660930     0.24800
C2320       C  0.39188298  0.87411226  0.50200032    -0.19400
C2321       C  0.39329129  0.87335981  0.53319265    -0.07900
C2322       C  0.38593864  0.86081882  0.54931668    -0.04000
C2323       C  0.37749144  0.84888122  0.53343864    -0.09300
C2324       C  0.37611632  0.84966709  0.50234085    -0.16900
H2325       H  0.35943454  0.84732626  0.33710352     0.11200
H2326       H  0.36161791  0.84519086  0.39185021     0.10500
H2327       H  0.39040998  0.88816530  0.39394142     0.10400
H2328       H  0.38829934  0.89054150  0.33963612     0.10900
H2329       H  0.39735816  0.88400420  0.48995899     0.11000
H2330       H  0.39981022  0.88277311  0.54468360     0.11000
H2331       H  0.37165893  0.83905730  0.54505259     0.11100
H2332       H  0.36932584  0.84051775  0.49061866     0.09900
C2333       C  0.39102808  0.80122818  0.76607529    -0.03900
C2334       C  0.37817356  0.79577752  0.78396485    -0.09600
C2335       C  0.37899528  0.78089436  0.79857122    -0.17300
C2336       C  0.39264853  0.77115274  0.79562064     0.24900
C2337       C  0.40552403  0.77645151  0.77796588    -0.19000
C2338       C  0.40474311  0.79136259  0.76332210    -0.07900
C2339       C  0.39331150  0.75569406  0.81049754    -0.14300
C2340       C  0.39337087  0.74274745  0.82291804    -0.14000
C2341       C  0.39279324  0.72723192  0.83759629     0.24800
C2342       C  0.40388938  0.72327057  0.86009059    -0.19400
C2343       C  0.40305489  0.70833401  0.87462723    -0.07900
C2344       C  0.39100518  0.69715575  0.86703649    -0.04000
C2345       C  0.37998283  0.70123437  0.84427595    -0.09300
C2346       C  0.38091012  0.71611083  0.82966238    -0.16900
H2347       H  0.36740997  0.80297911  0.78664082     0.11200
H2348       H  0.36892912  0.77696035  0.81210529     0.10500
H2349       H  0.41615544  0.76903100  0.77541948     0.10400
H2350       H  0.41483753  0.79509907  0.74969738     0.10900
H2351       H  0.41313050  0.73176034  0.86652883     0.11000
H2352       H  0.41168463  0.70564751  0.89212479     0.11000
H2353       H  0.37061447  0.69292040  0.83772657     0.11100
H2354       H  0.37225979  0.71898413  0.81228753     0.09900
C2355       C  0.38760162  0.63761081  0.58295597    -0.03900
C2356       C  0.39298770  0.62376474  0.59814069    -0.09600
C2357       C  0.39098745  0.62234729  0.62917450    -0.17300
C2358       C  0.38368841  0.63476356  0.64541598     0.24900
C2359       C  0.37889587  0.64882059  0.63069243    -0.19000
C2360       C  0.38083766  0.65025418  0.59973783    -0.07900
C2361       C  0.38089724  0.63304988  0.67708869    -0.14300
C2362       C  0.37875883  0.63175786  0.70369560    -0.14000
C2363       C  0.37716622  0.63023535  0.73567878     0.24800
C2364       C  0.36743283  0.64090033  0.75180305    -0.19400
C2365       C  0.36687536  0.64005531  0.78309678    -0.07900
C2366       C  0.37610813  0.62854252  0.79865865    -0.04000
C2367       C  0.38549623  0.61760413  0.78210032    -0.09300
C2368       C  0.38601162  0.61847046  0.75088624    -0.16900
H2369       H  0.39819891  0.61379897  0.58594337     0.11200
H2370       H  0.39483784  0.61144222  0.64039896     0.10500
H2371       H  0.37336202  0.65856387  0.64305216     0.10400
H2372       H  0.37665279  0.66112891  0.58885458     0.10900
H2373       H  0.36054239  0.65007776  0.74024842     0.11000
H2374       H  0.35955534  0.64868097  0.79509140     0.11000
H2375       H  0.39274766  0.60857113  0.79325258     0.11100
H2376       H  0.39358790  0.61016147  0.73863898     0.09900
C2377       C  0.38666431  0.63827885  0.08264895    -0.03900
C2378       C  0.37991817  0.65115618  0.09880213    -0.09600
C2379       C  0.37869033  0.65042252  0.12996090    -0.17300
C2380       C  0.38415291  0.63683515  0.14541466     0.24900
C2381       C  0.39128872  0.62415875  0.12968171    -0.19000
C2382       C  0.39258601  0.62487865  0.09849600    -0.07900
C2383       C  0.38193106  0.63570488  0.17728211    -0.14300
C2384       C  0.37978655  0.63473199  0.20391117    -0.14000
C2385       C  0.37748267  0.63346558  0.23575782     0.24800
C2386       C  0.38382369  0.62029865  0.25125066    -0.19400
C2387       C  0.38238226  0.61938608  0.28234011    -0.07900
C2388       C  0.37456781  0.63166552  0.29853410    -0.04000
C2389       C  0.36781362  0.64465146  0.28264961    -0.09300
C2390       C  0.36929720  0.64553989  0.25143312    -0.16900
H2391       H  0.37527314  0.66167004  0.08734238     0.11200
H2392       H  0.37318662  0.66031818  0.14194127     0.10500
H2393       H  0.39556095  0.61358191  0.14145616     0.10400
H2394       H  0.39775748  0.61473033  0.08676707     0.10900
H2395       H  0.39014404  0.61086358  0.23936381     0.11000
H2396       H  0.38771670  0.60918636  0.29374523     0.11000
H2397       H  0.36184722  0.65435087  0.29438345     0.11100
H2398       H  0.36433323  0.65579002  0.23959437     0.09900
C2399       C  0.38823138  0.69941030  0.36807072    -0.03900
C2400       C  0.37453785  0.70510562  0.35265820    -0.09600
C2401       C  0.37467333  0.72012450  0.33874865    -0.17300
C2402       C  0.38846035  0.72967082  0.33999283     0.24900
C2403       C  0.40218759  0.72411230  0.35496290    -0.19000
C2404       C  0.40209598  0.70905972  0.36893418    -0.07900
C2405       C  0.38849246  0.74515050  0.32579852    -0.14300
C2406       C  0.38840065  0.75801463  0.31346671    -0.14000
C2407       C  0.38827476  0.77319095  0.29817358     0.24800
C2408       C  0.40175717  0.77810536  0.28185026    -0.19400
C2409       C  0.40158018  0.79277416  0.26654836    -0.07900
C2410       C  0.38786613  0.80269480  0.26741369    -0.04000
C2411       C  0.37437650  0.79760452  0.28399590    -0.09300
C2412       C  0.37459839  0.78295714  0.29925098    -0.16900
H2413       H  0.36364538  0.69801800  0.35143355     0.11200
H2414       H  0.36400559  0.72431035  0.32711756     0.10500
H2415       H  0.41293656  0.73143859  0.35593201     0.10400
H2416       H  0.41281503  0.70505142  0.38056383     0.10900
H2417       H  0.41238366  0.77056584  0.28085659     0.11000
H2418       H  0.41213035  0.79628572  0.25395185     0.11000
H2419       H  0.36359728  0.80490000  0.28516706     0.11100
H2420       H  0.36408586  0.77922934  0.31178288     0.09900
C2421       C  0.63092124  0.37312178  0.79801076    -0.03900
C2422       C  0.63960955  0.36141465  0.78200295    -0.09600
C2423       C  0.63824823  0.36046052  0.75077710    -0.17300
C2424       C  0.62825529  0.37121151  0.73524289     0.24900
C2425       C  0.62025419  0.38336522  0.75083590    -0.19000
C2426       C  0.62160215  0.38436555  0.78191270    -0.07900
C2427       C  0.62562140  0.36951640  0.70351429    -0.14300
C2428       C  0.62304957  0.36831315  0.67701067    -0.14000
C2429       C  0.62065728  0.36678007  0.64516836     0.24800
C2430       C  0.61078080  0.37759471  0.62950139    -0.19400
C2431       C  0.60939000  0.37657006  0.59823594    -0.07900
C2432       C  0.61788312  0.36468691  0.58229300    -0.04000
C2433       C  0.62744762  0.35367323  0.59850929    -0.09300
C2434       C  0.62880766  0.35472966  0.62959025    -0.16900
H2435       H  0.64692419  0.35261039  0.79364295     0.11200
H2436       H  0.64460494  0.35106274  0.73887651     0.10500
H2437       H  0.61259040  0.39182045  0.73904884     0.10400
H2438       H  0.61482797  0.39361797  0.79338512     0.10900
H2439       H  0.60440297  0.38699196  0.64136746     0.11000
H2440       H  0.60197485  0.38526572  0.58654334     0.11000
H2441       H  0.63418050  0.34435091  0.58715636     0.11100
H2442       H  0.63647614  0.34629462  0.64142459     0.09900
C2443       C  0.61664983  0.36045104  0.08106182    -0.03900
C2444       C  0.62538513  0.34845262  0.09645451    -0.09600
C2445       C  0.62674215  0.34879742  0.12758425    -0.17300
C2446       C  0.61935523  0.36106785  0.14387924     0.24900
C2447       C  0.61024916  0.37279762  0.12897175    -0.19000
C2448       C  0.60887649  0.37249972  0.09773438    -0.07900
C2449       C  0.62162447  0.36193170  0.17575981    -0.14300
C2450       C  0.62370633  0.36306433  0.20237958    -0.14000
C2451       C  0.62565591  0.36507031  0.23415997     0.24800
C2452       C  0.61623662  0.37639426  0.24915755    -0.19400
C2453       C  0.61744229  0.37799828  0.28016583    -0.07900
C2454       C  0.62804504  0.36819040  0.29681321    -0.04000
C2455       C  0.63787571  0.35718000  0.28138799    -0.09300
C2456       C  0.63666942  0.35563692  0.25022305    -0.16900
H2457       H  0.63154405  0.33897474  0.08443181     0.11200
H2458       H  0.63381405  0.33966103  0.13888406     0.10500
H2459       H  0.60448545  0.38236150  0.14144281     0.10400
H2460       H  0.60213695  0.38193876  0.08664055     0.10900
H2461       H  0.60773435  0.38381132  0.23693397     0.11000
H2462       H  0.60968857  0.38663522  0.29114546     0.11000
H2463       H  0.64617533  0.34947838  0.29343379     0.11100
H2464       H  0.64409663  0.34688969  0.23875135     0.09900
C2465       C  0.43509185  0.12778195  0.63270883    -0.03900
C2466       C  0.44405805  0.14209327  0.63067395    -0.09600
C2467       C  0.46043332  0.14222005  0.63771094    -0.17300
C2468       C  0.46813132  0.12808877  0.64690303     0.24900
C2469       C  0.45925626  0.11390051  0.65000064    -0.19000
C2470       C  0.44282993  0.11373750  0.64301166    -0.07900
C2471       C  0.48527839  0.12810374  0.65145929    -0.14300
C2472       C  0.49971282  0.12899072  0.65357071    -0.14000
C2473       C  0.51687757  0.13110154  0.65512192     0.24800
C2474       C  0.52716252  0.12135898  0.63819304    -0.19400
C2475       C  0.54383956  0.12354424  0.63974196    -0.07900
C2476       C  0.55043515  0.13555094  0.65825044    -0.04000
C2477       C  0.53991819  0.14549539  0.67461854    -0.09300
C2478       C  0.52329421  0.14324377  0.67310478    -0.16900
H2479       H  0.43854504  0.15312881  0.62283336     0.11200
H2480       H  0.46718778  0.15327085  0.63522844     0.10500
H2481       H  0.46510621  0.10288096  0.65707345     0.10400
H2482       H  0.43634013  0.10250150  0.64473916     0.10900
H2483       H  0.52230568  0.11198975  0.62401298     0.11000
H2484       H  0.55155231  0.11562456  0.62694335     0.11000
H2485       H  0.54452386  0.15476427  0.68928388     0.11100
H2486       H  0.51544255  0.15091267  0.68616813     0.09900
C2487       C  0.61619089  0.19816732  0.76555813    -0.03900
C2488       C  0.60188945  0.20730505  0.76513394    -0.09600
C2489       C  0.60113935  0.22232981  0.77929813    -0.17300
C2490       C  0.61465193  0.22851626  0.79409138     0.24900
C2491       C  0.62891269  0.21952720  0.79461686    -0.19000
C2492       C  0.62969682  0.20451535  0.78050997    -0.07900
C2493       C  0.61401119  0.24408993  0.80856891    -0.14300
C2494       C  0.61402130  0.25709364  0.82077189    -0.14000
C2495       C  0.61461363  0.27260680  0.83548892     0.24800
C2496       C  0.62943031  0.28015708  0.84042690    -0.19400
C2497       C  0.63010985  0.29509781  0.85483791    -0.07900
C2498       C  0.61595506  0.30275996  0.86478515    -0.04000
C2499       C  0.60110570  0.29508057  0.85969224    -0.09300
C2500       C  0.60045326  0.28016750  0.84509912    -0.16900
H2501       H  0.59125405  0.20285986  0.75386380     0.11200
H2502       H  0.59001671  0.22912859  0.77865658     0.10500
H2503       H  0.63947409  0.22413901  0.80592293     0.10400
H2504       H  0.64091987  0.19790194  0.78131733     0.10900
H2505       H  0.64049664  0.27446964  0.83319791     0.11000
H2506       H  0.64176286  0.30055944  0.85846650     0.11000
H2507       H  0.58996971  0.30061064  0.86692003     0.11100
H2508       H  0.58889316  0.27450779  0.84142427     0.09900
C2509       C  0.43457371  0.12799049  0.13232403    -0.03900
C2510       C  0.44289976  0.14272875  0.13202626    -0.09600
C2511       C  0.45929469  0.14335579  0.13890447    -0.17300
C2512       C  0.46769589  0.12929806  0.14615304     0.24900
C2513       C  0.45944943  0.11463434  0.14751871    -0.19000
C2514       C  0.44298135  0.11397827  0.14075505    -0.07900
C2515       C  0.48488195  0.12995875  0.15068727    -0.14300
C2516       C  0.49930597  0.13115529  0.15320186    -0.14000
C2517       C  0.51652461  0.13298360  0.15565797     0.24800
C2518       C  0.52299392  0.14498845  0.17395367    -0.19400
C2519       C  0.53967288  0.14654421  0.17696757    -0.07900
C2520       C  0.55019043  0.13607562  0.16172226    -0.04000
C2521       C  0.54355571  0.12425556  0.14286409    -0.09300
C2522       C  0.52685387  0.12274762  0.13986079    -0.16900
H2523       H  0.43684324  0.15376076  0.12570302     0.11200
H2524       H  0.46551501  0.15477695  0.13781030     0.10500
H2525       H  0.46582074  0.10365394  0.15306993     0.10400
H2526       H  0.43700074  0.10242604  0.14099183     0.10900
H2527       H  0.51514042  0.15303575  0.18619887     0.11000
H2528       H  0.54429727  0.15574245  0.19176949     0.11000
H2529       H  0.55124305  0.11597615  0.13082607     0.11100
H2530       H  0.52199714  0.11346039  0.12549816     0.09900
C2531       C  0.62649832  0.13137927  0.83855731    -0.03900
C2532       C  0.63371071  0.14424654  0.85392464    -0.09600
C2533       C  0.63181795  0.14582445  0.88498234    -0.17300
C2534       C  0.62275312  0.13455604  0.90108590     0.24900
C2535       C  0.61579002  0.12158107  0.88607831    -0.19000
C2536       C  0.61763498  0.11998644  0.85513790    -0.07900
C2537       C  0.62053660  0.13620748  0.93297379    -0.14300
C2538       C  0.61866509  0.13711062  0.95973529    -0.14000
C2539       C  0.61691748  0.13786660  0.99184030     0.24800
C2540       C  0.60922118  0.12543656  0.00742433    -0.19400
C2541       C  0.60839162  0.12573411  0.03876000    -0.07900
C2542       C  0.61529447  0.13848768  0.05494699    -0.04000
C2543       C  0.62265227  0.15111249  0.03893066    -0.09300
C2544       C  0.62345599  0.15078006  0.00768407    -0.16900
H2545       H  0.64046197  0.15330206  0.84188417     0.11200
H2546       H  0.63728134  0.15592314  0.89637623     0.10500
H2547       H  0.60878855  0.11275625  0.89825873     0.10400
H2548       H  0.61187476  0.10992495  0.84415649     0.10900
H2549       H  0.60412260  0.11536056  0.99538841     0.11000
H2550       H  0.60271042  0.11579575  0.05029432     0.11000
H2551       H  0.62811237  0.16113638  0.05053905     0.11100
H2552       H  0.62944333  0.16046969  0.99591764     0.09900
C2553       C  0.61646394  0.13515182  0.55357471    -0.03900
C2554       C  0.60977812  0.12222936  0.53752498    -0.09600
C2555       C  0.61124702  0.12155727  0.50627618    -0.17300
C2556       C  0.61932494  0.13380956  0.49083198     0.24900
C2557       C  0.62531691  0.14701041  0.50649621    -0.19000
C2558       C  0.62389870  0.14770287  0.53755724    -0.07900
C2559       C  0.62224769  0.13263103  0.45916697    -0.14300
C2560       C  0.62517850  0.13180646  0.43278521    -0.14000
C2561       C  0.62791224  0.13029209  0.40111232     0.24800
C2562       C  0.63732553  0.14149494  0.38553374    -0.19400
C2563       C  0.63881267  0.14046076  0.35431553    -0.07900
C2564       C  0.63083715  0.12821612  0.33842885    -0.04000
C2565       C  0.62195359  0.11671169  0.35460127    -0.09300
C2566       C  0.62050043  0.11777538  0.38561196    -0.16900
H2567       H  0.60397267  0.11238949  0.54914521     0.11200
H2568       H  0.60648975  0.11129783  0.49428911     0.10500
H2569       H  0.63149249  0.15659524  0.49476890     0.10400
H2570       H  0.62904531  0.15791667  0.54908717     0.10900
H2571       H  0.64316246  0.15123063  0.39738321     0.11000
H2572       H  0.64569686  0.14953659  0.34258463     0.11000
H2573       H  0.61569399  0.10708536  0.34323035     0.11100
H2574       H  0.61324484  0.10901979  0.39744081     0.09900
C2575       C  0.61430258  0.29961435  0.37256182    -0.03900
C2576       C  0.60058229  0.28995521  0.37704404    -0.09600
C2577       C  0.59976287  0.27441641  0.36505084    -0.17300
C2578       C  0.61261271  0.26825303  0.34836371     0.24900
C2579       C  0.62629735  0.27773742  0.34378285    -0.19000
C2580       C  0.62716028  0.29326326  0.35576360    -0.07900
C2581       C  0.61180288  0.25230124  0.33564016    -0.14300
C2582       C  0.61186572  0.23918737  0.32398539    -0.14000
C2583       C  0.61299185  0.22393841  0.30866114     0.24800
C2584       C  0.62793217  0.21861076  0.29814321    -0.19400
C2585       C  0.62912184  0.20424084  0.28207728    -0.07900
C2586       C  0.61532448  0.19500579  0.27599816    -0.04000
C2587       C  0.60036949  0.20032457  0.28698661    -0.09300
C2588       C  0.59922999  0.21466572  0.30329503    -0.16900
H2589       H  0.59048519  0.29435597  0.38996791     0.11200
H2590       H  0.58910080  0.26722011  0.36880027     0.10500
H2591       H  0.63633215  0.27312633  0.33091185     0.10400
H2592       H  0.63792887  0.30026624  0.35189792     0.10900
H2593       H  0.63866821  0.22566797  0.30208865     0.11000
H2594       H  0.64081760  0.20051467  0.27395377     0.11000
H2595       H  0.58956066  0.19340065  0.28298722     0.11100
H2596       H  0.58759633  0.21861130  0.31138285     0.09900
C2597       C  0.87360057  0.86862983  0.46121380    -0.03900
C2598       C  0.86062855  0.86185639  0.47702158    -0.09600
C2599       C  0.86016233  0.86258674  0.50833833    -0.17300
C2600       C  0.87266950  0.87000270  0.52415471     0.24900
C2601       C  0.88582947  0.87629784  0.50868218    -0.19000
C2602       C  0.88631284  0.87562304  0.47748848    -0.07900
C2603       C  0.87173615  0.87190517  0.55609937    -0.14300
C2604       C  0.87095703  0.87420074  0.58268830    -0.14000
C2605       C  0.86965786  0.87707884  0.61432874     0.24800
C2606       C  0.88269779  0.88331805  0.63042198    -0.19400
C2607       C  0.88151421  0.88555906  0.66140447    -0.07900
C2608       C  0.86727762  0.88147726  0.67660510    -0.04000
C2609       C  0.85412224  0.87560744  0.66002220    -0.09300
C2610       C  0.85531665  0.87344813  0.62913330    -0.16900
H2611       H  0.85060711  0.85649784  0.46519794     0.11200
H2612       H  0.84988959  0.85770682  0.52015172     0.10500
H2613       H  0.89556641  0.88206302  0.52069669     0.10400
H2614       H  0.89650664  0.88092522  0.46609946     0.10900
H2615       H  0.89385024  0.88620590  0.61911029     0.11000
H2616       H  0.89188349  0.88997377  0.67354987     0.11000
H2617       H  0.84296504  0.87239927  0.67099648     0.11100
H2618       H  0.84512620  0.86870372  0.61686816     0.09900
C2619       C  0.86629015  0.88280804  0.17763570    -0.03900
C2620       C  0.87783072  0.89178395  0.16178684    -0.09600
C2621       C  0.87905528  0.89038409  0.13059772    -0.17300
C2622       C  0.86875893  0.88003928  0.11494481     0.24900
C2623       C  0.85704394  0.87137539  0.13044780    -0.19000
C2624       C  0.85576457  0.87276941  0.16146281    -0.07900
C2625       C  0.87007838  0.87818042  0.08299454    -0.14300
C2626       C  0.87062940  0.87634800  0.05622929    -0.14000
C2627       C  0.87126801  0.87452427  0.02418980     0.24800
C2628       C  0.85866304  0.86707106  0.00865905    -0.19400
C2629       C  0.85912380  0.86591736  0.97735738    -0.07900
C2630       C  0.87219386  0.87228793  0.96125335    -0.04000
C2631       C  0.88490538  0.87948718  0.97724053    -0.09300
C2632       C  0.88442543  0.88058782  0.00839943    -0.16900
H2633       H  0.88609890  0.89961925  0.17349299     0.11200
H2634       H  0.88813228  0.89721804  0.11875826     0.10500
H2635       H  0.84897075  0.86339496  0.11857388     0.10400
H2636       H  0.84669837  0.86568488  0.17279153     0.10900
H2637       H  0.84838172  0.86236890  0.02069323     0.11000
H2638       H  0.84907830  0.86046098  0.96576196     0.11000
H2639       H  0.89515894  0.88453853  0.96564362     0.11100
H2640       H  0.89423744  0.88638157  0.02014921     0.09900
C2641       C  0.63656487  0.95130825  0.59931313    -0.03900
C2642       C  0.62303434  0.95777156  0.61397128    -0.09600
C2643       C  0.62072066  0.97439290  0.61538548    -0.17300
C2644       C  0.63185168  0.98479890  0.60218782     0.24900
C2645       C  0.64535861  0.97854027  0.58759872    -0.19000
C2646       C  0.64770127  0.96191577  0.58610860    -0.07900
C2647       C  0.62978590  0.00189190  0.60494167    -0.14300
C2648       C  0.62859606  0.01611037  0.60950356    -0.14000
C2649       C  0.62828905  0.03276484  0.61798877     0.24800
C2650       C  0.61648876  0.04323036  0.60685605    -0.19400
C2651       C  0.61614868  0.05930011  0.61616441    -0.07900
C2652       C  0.62765609  0.06504982  0.63665035    -0.04000
C2653       C  0.63951508  0.05439883  0.64745154    -0.09300
C2654       C  0.63977876  0.03840055  0.63824041    -0.16900
H2655       H  0.61415048  0.95000939  0.62418235     0.11200
H2656       H  0.61027514  0.97913162  0.62689591     0.10500
H2657       H  0.65411105  0.98650501  0.57747689     0.10400
H2658       H  0.65819389  0.95739268  0.57447889     0.10900
H2659       H  0.60750593  0.03895511  0.59120174     0.11000
H2660       H  0.60688241  0.06718359  0.60742213     0.11000
H2661       H  0.64849490  0.05834150  0.66340354     0.11100
H2662       H  0.64890574  0.03037666  0.64710939     0.09900
C2663       C  0.57022645  0.87236843  0.63166919    -0.03900
C2664       C  0.56168767  0.88665179  0.63755935    -0.09600
C2665       C  0.54522244  0.88617161  0.64415389    -0.17300
C2666       C  0.53713915  0.87142183  0.64523157     0.24900
C2667       C  0.54572361  0.85713571  0.64089707    -0.19000
C2668       C  0.56212279  0.85758582  0.63409327    -0.07900
C2669       C  0.51989518  0.87085898  0.64859523    -0.14300
C2670       C  0.50543660  0.86959980  0.64971367    -0.14000
C2671       C  0.48823170  0.86737739  0.65042999     0.24800
C2672       C  0.48176028  0.85352349  0.66345375    -0.19400
C2673       C  0.46508927  0.85151359  0.66514492    -0.07900
C2674       C  0.45457274  0.86335912  0.65380453    -0.04000
C2675       C  0.46121392  0.87702875  0.63987748    -0.09300
C2676       C  0.47792385  0.87901230  0.63824634    -0.16900
H2677       H  0.56754631  0.89822958  0.63576583     0.11200
H2678       H  0.53870958  0.89731809  0.64746033     0.10500
H2679       H  0.53961859  0.84564855  0.64177305     0.10400
H2680       H  0.56835372  0.84637079  0.62990391     0.10900
H2681       H  0.48960537  0.84437197  0.67275705     0.11000
H2682       H  0.46045944  0.84083965  0.67601592     0.11000
H2683       H  0.45352448  0.88641569  0.63099458     0.11100
H2684       H  0.48279281  0.88974246  0.62791707     0.09900
C2685       C  0.70310093  0.88454950  0.50095889    -0.03900
C2686       C  0.71046292  0.87039972  0.49033115    -0.09600
C2687       C  0.72493672  0.87107475  0.47440023    -0.17300
C2688       C  0.73231034  0.88588087  0.46870680     0.24900
C2689       C  0.72515312  0.90002788  0.47929805    -0.19000
C2690       C  0.71069178  0.89938236  0.49538752    -0.07900
C2691       C  0.74722629  0.88647829  0.45211805    -0.14300
C2692       C  0.75976548  0.88649607  0.43839583    -0.14000
C2693       C  0.77483947  0.88584318  0.42231429     0.24800
C2694       C  0.78126397  0.89969158  0.40906702    -0.19400
C2695       C  0.79594383  0.89897233  0.39368210    -0.07900
C2696       C  0.80445714  0.88436298  0.39134644    -0.04000
C2697       C  0.79782154  0.87050831  0.40466300    -0.09300
C2698       C  0.78316335  0.87126397  0.41998145    -0.16900
H2699       H  0.70502915  0.85876916  0.49425835     0.11200
H2700       H  0.73034903  0.86002753  0.46642447     0.10500
H2701       H  0.73072237  0.91157000  0.47504279     0.10400
H2702       H  0.70533732  0.91051312  0.50304660     0.10900
H2703       H  0.77495299  0.91106055  0.41069065     0.11000
H2704       H  0.80065494  0.90987935  0.38378328     0.11000
H2705       H  0.80396528  0.85904620  0.40336840     0.11100
H2706       H  0.77833882  0.86045301  0.43009510     0.09900
C2707       C  0.63697714  0.95036260  0.10526496    -0.03900
C2708       C  0.64438268  0.96164465  0.08621152    -0.09600
C2709       C  0.64196875  0.97814336  0.09038904    -0.17300
C2710       C  0.63220004  0.98366978  0.11372803     0.24900
C2711       C  0.62502429  0.97257853  0.13316998    -0.19000
C2712       C  0.62735136  0.95605335  0.12895269    -0.07900
C2713       C  0.62971587  0.00071468  0.11779151    -0.14300
C2714       C  0.62835298  0.01505924  0.12124687    -0.14000
C2715       C  0.62801920  0.03219855  0.12628125     0.24800
C2716       C  0.64206600  0.03997818  0.13547617    -0.19400
C2717       C  0.64188513  0.05642060  0.14170677    -0.07900
C2718       C  0.62759350  0.06545097  0.13891836    -0.04000
C2719       C  0.61357293  0.05761290  0.12893184    -0.09300
C2720       C  0.61379527  0.04108385  0.12269314    -0.16900
H2721       H  0.65181252  0.95773260  0.06769499     0.11200
H2722       H  0.64765527  0.98659542  0.07527107     0.10500
H2723       H  0.61753790  0.97669290  0.15147092     0.10400
H2724       H  0.62153509  0.94774176  0.14414383     0.10900
H2725       H  0.65315673  0.03327159  0.13825898     0.11000
H2726       H  0.65293581  0.06198036  0.14924945     0.11000
H2727       H  0.60236900  0.06415281  0.12656472     0.11100
H2728       H  0.60283577  0.03520593  0.11551032     0.09900
C2729       C  0.45526320  0.86285580  0.15936022    -0.03900
C2730       C  0.46526549  0.85034329  0.16980828    -0.09600
C2731       C  0.48196440  0.85106868  0.16598463    -0.17300
C2732       C  0.48899931  0.86432695  0.15182176     0.24900
C2733       C  0.47918357  0.87684967  0.14137485    -0.19000
C2734       C  0.46245507  0.87613022  0.14506895    -0.07900
C2735       C  0.50628209  0.86518030  0.14849474    -0.14300
C2736       C  0.52075906  0.86597283  0.14615782    -0.14000
C2737       C  0.53805520  0.86707523  0.14337647     0.24800
C2738       C  0.54734625  0.85313864  0.14021507    -0.19400
C2739       C  0.56399194  0.85425112  0.13603947    -0.07900
C2740       C  0.57166414  0.86935621  0.13490312    -0.04000
C2741       C  0.56230234  0.88326715  0.13918291    -0.09300
C2742       C  0.54562220  0.88211712  0.14328621    -0.16900
H2743       H  0.46020633  0.83998090  0.18105582     0.11200
H2744       H  0.48940113  0.84131593  0.17426497    -0.02300
H2745       H  0.48446686  0.88722607  0.13051346     0.10400
H2746       H  0.45519104  0.88606327  0.13705551     0.10900
H2747       H  0.54168832  0.84141481  0.14034789     0.11000
H2748       H  0.57078260  0.84327053  0.13278067     0.11000
H2749       H  0.56774312  0.89506874  0.13809008     0.11100
H2750       H  0.53857510  0.89299876  0.14574502     0.09900
C2751       C  0.63155839  0.87113289  0.92881344    -0.03900
C2752       C  0.64422570  0.86427258  0.91226667    -0.09600
C2753       C  0.64437398  0.86535226  0.88094264    -0.17300
C2754       C  0.63185242  0.87323495  0.86579657     0.24900
C2755       C  0.61899752  0.87964756  0.88200610    -0.19000
C2756       C  0.61883622  0.87863150  0.91321570    -0.07900
C2757       C  0.63239931  0.87536449  0.83378114    -0.14300
C2758       C  0.63293189  0.87753270  0.80707227    -0.14000
C2759       C  0.63432920  0.87960634  0.77513590     0.24800
C2760       C  0.62356005  0.88941928  0.75920517    -0.19400
C2761       C  0.62488402  0.89090285  0.72798631    -0.07900
C2762       C  0.63702370  0.88257357  0.71240005    -0.04000
C2763       C  0.64788968  0.87297080  0.72886725    -0.09300
C2764       C  0.64653387  0.87151720  0.75986718    -0.16900
H2765       H  0.65424775  0.85852155  0.92352801     0.11200
H2766       H  0.65440754  0.86034002  0.86860371     0.10500
H2767       H  0.60923541  0.88574317  0.87054767     0.10400
H2768       H  0.60886500  0.88402460  0.92514500     0.10900
H2769       H  0.61405420  0.89576588  0.77084140     0.11000
H2770       H  0.61627572  0.89831583  0.71605982     0.11000
H2771       H  0.65738396  0.86633913  0.71778787     0.11100
H2772       H  0.65494546  0.86391913  0.77191753     0.09900
C2773       C  0.63999707  0.87936492  0.21303083    -0.03900
C2774       C  0.62720128  0.88655968  0.22874358    -0.09600
C2775       C  0.62570319  0.88439412  0.25971331    -0.17300
C2776       C  0.63696075  0.87504992  0.27534346     0.24900
C2777       C  0.64985487  0.86809400  0.26002567    -0.19000
C2778       C  0.65137823  0.87021849  0.22914493    -0.07900
C2779       C  0.63529252  0.87245139  0.30704785    -0.14300
C2780       C  0.63420076  0.87030317  0.33366659    -0.14000
C2781       C  0.63315969  0.86850410  0.36564695     0.24800
C2782       C  0.64611854  0.86209734  0.38182369    -0.19400
C2783       C  0.64576978  0.86192077  0.41313988    -0.07900
C2784       C  0.63251589  0.86834804  0.42859187    -0.04000
C2785       C  0.61921426  0.87401715  0.41208165    -0.09300
C2786       C  0.61954904  0.87407705  0.38081707    -0.16900
H2787       H  0.61817622  0.89358144  0.21706476     0.11200
H2788       H  0.61567730  0.88985579  0.27139938     0.10500
H2789       H  0.65865772  0.86087559  0.27191033     0.10400
H2790       H  0.66137076  0.86447795  0.21785745     0.10900
H2791       H  0.65670311  0.85771707  0.37027003     0.11000
H2792       H  0.65617934  0.85748593  0.42521601     0.11000
H2793       H  0.60874411  0.87886968  0.42333134     0.11100
H2794       H  0.60941410  0.87896569  0.36850986     0.09900
C2795       C  0.69982247  0.88567454  0.99119218    -0.03900
C2796       C  0.71031125  0.89885017  0.99412050    -0.09600
C2797       C  0.72474967  0.89942363  0.97790010    -0.17300
C2798       C  0.72890705  0.88689771  0.95841043     0.24900
C2799       C  0.71843613  0.87387987  0.95498873    -0.19000
C2800       C  0.70404401  0.87325708  0.97117574    -0.07900
C2801       C  0.74400585  0.88718264  0.94231899    -0.14300
C2802       C  0.75668846  0.88692183  0.92903725    -0.14000
C2803       C  0.77196176  0.88613680  0.91359147     0.24800
C2804       C  0.78183690  0.87260603  0.91692805    -0.19400
C2805       C  0.79674897  0.87186182  0.90246931    -0.07900
C2806       C  0.80210810  0.88468483  0.88438883    -0.04000
C2807       C  0.79201746  0.89819036  0.88093665    -0.09300
C2808       C  0.77706860  0.89888749  0.89541613    -0.16900
H2809       H  0.70747773  0.90861397  0.00922888     0.11200
H2810       H  0.73273496  0.90958188  0.98076255     0.10500
H2811       H  0.72145709  0.86411604  0.93997096     0.10400
H2812       H  0.69627818  0.86295212  0.96810608     0.10900
H2813       H  0.77805323  0.86264060  0.93087875     0.11000
H2814       H  0.80413918  0.86127397  0.90574678     0.11000
H2815       H  0.79569750  0.90826912  0.86720277     0.11100
H2816       H  0.76953920  0.90942279  0.89257527     0.09900
C2817       C  0.86771573  0.69457022  0.78764010    -0.03900
C2818       C  0.85227872  0.70152675  0.78620752    -0.09600
C2819       C  0.85012170  0.71790494  0.79249417    -0.17300
C2820       C  0.86338218  0.72749082  0.79991810     0.24900
C2821       C  0.87885431  0.72085663  0.79938889    -0.19000
C2822       C  0.88101547  0.70453356  0.79337721    -0.07900
C2823       C  0.86130071  0.74376728  0.81030682    -0.14300
C2824       C  0.86141753  0.75722039  0.82041508    -0.14000
C2825       C  0.86389446  0.77320250  0.83197359     0.24800
C2826       C  0.87924406  0.77995031  0.83024185    -0.19400
C2827       C  0.88173606  0.79587984  0.83868535    -0.07900
C2828       C  0.86884089  0.80546599  0.84873861    -0.04000
C2829       C  0.85363569  0.79827659  0.85237099    -0.09300
C2830       C  0.85117805  0.78221971  0.84394347    -0.16900
H2831       H  0.84178469  0.69411530  0.78233456     0.11200
H2832       H  0.83808100  0.72290397  0.79284040     0.10500
H2833       H  0.88921493  0.72815012  0.80499117     0.10400
H2834       H  0.89303112  0.69952262  0.79474230     0.10900
H2835       H  0.88921501  0.77306156  0.82130334     0.11000
H2836       H  0.89361697  0.80094520  0.83562999     0.11000
H2837       H  0.84343190  0.80531067  0.85983673     0.11100
H2838       H  0.83925841  0.77706209  0.84566104     0.09900
C2839       C  0.87023954  0.69389697  0.28393637    -0.03900
C2840       C  0.88345659  0.70321273  0.29332671    -0.09600
C2841       C  0.88155175  0.71947407  0.29996172    -0.17300
C2842       C  0.86647720  0.72676804  0.29712946     0.24900
C2843       C  0.85355305  0.71801558  0.28533075    -0.19000
C2844       C  0.85542847  0.70164447  0.27865549    -0.07900
C2845       C  0.86428331  0.74277023  0.30872379    -0.14300
C2846       C  0.86417324  0.75595196  0.31995559    -0.14000
C2847       C  0.86597976  0.77183895  0.33228973     0.24800
C2848       C  0.85249874  0.78125057  0.33914389    -0.19400
C2849       C  0.85440105  0.79746008  0.34680041    -0.07900
C2850       C  0.86980796  0.80444475  0.34730856    -0.04000
C2851       C  0.88332089  0.79457939  0.34243369    -0.09300
C2852       C  0.88140154  0.77838054  0.33509883    -0.16900
H2853       H  0.89507029  0.69771483  0.29747279     0.11200
H2854       H  0.89167657  0.72615555  0.30880074     0.10500
H2855       H  0.84184650  0.72359672  0.28279294     0.10400
H2856       H  0.84501383  0.69484189  0.27153911     0.10900
H2857       H  0.84050225  0.77629918  0.33713429     0.11000
H2858       H  0.84376508  0.80478482  0.35006326     0.11000
H2859       H  0.89533347  0.79960391  0.34263180     0.11100
H2860       H  0.89192883  0.77117774  0.33006171     0.09900
C2861       C  0.86449227  0.61595502  0.46039870    -0.03900
C2862       C  0.87852452  0.61139440  0.47586733    -0.09600
C2863       C  0.87938782  0.61288732  0.50703973    -0.17300
C2864       C  0.86621732  0.61882380  0.52316176     0.24900
C2865       C  0.85202604  0.62288705  0.50805928    -0.19000
C2866       C  0.85115904  0.62149273  0.47691731    -0.07900
C2867       C  0.86741771  0.62123806  0.55504018    -0.14300
C2868       C  0.86847450  0.62351482  0.58165895    -0.14000
C2869       C  0.86977957  0.62602518  0.61351032     0.24800
C2870       C  0.85656156  0.63169221  0.62982049    -0.19400
C2871       C  0.85754980  0.63325588  0.66097792    -0.07900
C2872       C  0.87174285  0.62899875  0.67628157    -0.04000
C2873       C  0.88512591  0.62378634  0.65957017    -0.09300
C2874       C  0.88414731  0.62235663  0.62841213    -0.16900
H2875       H  0.88902656  0.60722597  0.46381333     0.11200
H2876       H  0.89044094  0.60971256  0.51849960     0.10500
H2877       H  0.84173709  0.62744701  0.52028533     0.10400
H2878       H  0.84014931  0.62506525  0.46572505     0.10900
H2879       H  0.84537549  0.63457464  0.61853637     0.11000
H2880       H  0.84699304  0.63714625  0.67318783     0.11000
H2881       H  0.89624092  0.62045843  0.67065761     0.11100
H2882       H  0.89448355  0.61803429  0.61602759     0.09900
C2883       C  0.86983481  0.62715203  0.17592151    -0.03900
C2884       C  0.85664720  0.63405225  0.16082120    -0.09600
C2885       C  0.85521051  0.63259835  0.12973073    -0.17300
C2886       C  0.86695171  0.62431109  0.11341801     0.24900
C2887       C  0.88033811  0.61785169  0.12810763    -0.19000
C2888       C  0.88178745  0.61924466  0.15911802    -0.07900
C2889       C  0.86519728  0.62207737  0.08169707    -0.14300
C2890       C  0.86422766  0.61995116  0.05509550    -0.14000
C2891       C  0.86356002  0.61779406  0.02320898     0.24800
C2892       C  0.87645125  0.61061349  0.00808571    -0.19400
C2893       C  0.87630126  0.60954296  0.97681276    -0.07900
C2894       C  0.86327096  0.61576310  0.96035941    -0.04000
C2895       C  0.85015504  0.62251330  0.97592481    -0.09300
C2896       C  0.85031084  0.62350418  0.00710714    -0.16900
H2897       H  0.84718470  0.64010101  0.17309098     0.11200
H2898       H  0.84480766  0.63766672  0.11850803     0.10500
H2899       H  0.88952064  0.61147210  0.11564993     0.10400
H2900       H  0.89210784  0.61380726  0.16998286     0.10900
H2901       H  0.88677171  0.60616227  0.02042184     0.11000
H2902       H  0.88658680  0.60435655  0.96550748     0.11000
H2903       H  0.83986701  0.62731895  0.96397193     0.11100
H2904       H  0.84025392  0.62903891  0.01859538     0.09900
C2905       C  0.63357081  0.69383322  0.60019020    -0.03900
C2906       C  0.64854825  0.70152812  0.60316414    -0.09600
C2907       C  0.65016346  0.71783391  0.59572292    -0.17300
C2908       C  0.63681516  0.72660834  0.58554348     0.24900
C2909       C  0.62166395  0.71934386  0.58490198    -0.19000
C2910       C  0.62003206  0.70310928  0.59222129    -0.07900
C2911       C  0.63863581  0.74268633  0.57387359    -0.14300
C2912       C  0.63902913  0.75606360  0.56333362    -0.14000
C2913       C  0.63806883  0.77232926  0.55218524     0.24800
C2914       C  0.62303569  0.77980924  0.54999214    -0.19400
C2915       C  0.62197854  0.79620434  0.54352239    -0.07900
C2916       C  0.63596810  0.80542685  0.53911997    -0.04000
C2917       C  0.65099380  0.79758394  0.53917350    -0.09300
C2918       C  0.65202793  0.78111996  0.54580813    -0.16900
H2919       H  0.65921258  0.69470240  0.60897127     0.11200
H2920       H  0.66194176  0.72336795  0.59651796     0.10500
H2921       H  0.61121478  0.72602642  0.57734653     0.10400
H2922       H  0.60831924  0.69756749  0.58980926     0.10900
H2923       H  0.61213972  0.77313741  0.55469587     0.11000
H2924       H  0.61022590  0.80184844  0.54357515     0.11000
H2925       H  0.66199130  0.80435523  0.53617320     0.11100
H2926       H  0.66373950  0.77544326  0.54734443     0.09900
C2927       C  0.62873914  0.43255682  0.50217662    -0.03900
C2928       C  0.61463733  0.44044892  0.51164219    -0.09600
C2929       C  0.61505345  0.45664742  0.52002252    -0.17300
C2930       C  0.62956436  0.46515604  0.51931865     0.24900
C2931       C  0.64376258  0.45722837  0.51115028    -0.19000
C2932       C  0.64337194  0.44106134  0.50262132    -0.07900
C2933       C  0.62980033  0.48217860  0.52549093    -0.14300
C2934       C  0.63032505  0.49653301  0.52945716    -0.14000
C2935       C  0.63157516  0.51369981  0.53357159     0.24800
C2936       C  0.64141225  0.51986193  0.55623230    -0.19400
C2937       C  0.64314523  0.53648038  0.55972111    -0.07900
C2938       C  0.63501665  0.54726850  0.54060900    -0.04000
C2939       C  0.62499982  0.54094685  0.51803502    -0.09300
C2940       C  0.62333898  0.52429062  0.51452046    -0.16900
H2941       H  0.60317493  0.43428793  0.51159730     0.11200
H2942       H  0.60398625  0.46263306  0.52635127     0.10500
H2943       H  0.65508532  0.46365378  0.51064668     0.10400
H2944       H  0.65447686  0.43533505  0.49574448     0.10900
H2945       H  0.64783955  0.51180870  0.57113838     0.11000
H2946       H  0.65081974  0.54086639  0.57751383     0.11000
H2947       H  0.61851786  0.54885175  0.50296163     0.11100
H2948       H  0.61570002  0.51968057  0.49684809     0.09900
C2949       C  0.45458193  0.63657358  0.47615815    -0.03900
C2950       C  0.46558439  0.64692739  0.46189000    -0.09600
C2951       C  0.48215753  0.64511510  0.46640531    -0.17300
C2952       C  0.48801976  0.63295323  0.48519522     0.24900
C2953       C  0.47719191  0.62287371  0.50010369    -0.19000
C2954       C  0.46061082  0.62465700  0.49564548    -0.07900
C2955       C  0.50513642  0.63060389  0.48848494    -0.14300
C2956       C  0.51954527  0.62905259  0.49056707    -0.14000
C2957       C  0.53681834  0.62825564  0.49338031     0.24800
C2958       C  0.54552094  0.64241822  0.49778921    -0.19400
C2959       C  0.56208635  0.64180969  0.50284814    -0.07900
C2960       C  0.57025207  0.62697338  0.50373960    -0.04000
C2961       C  0.56156695  0.61282370  0.49766251    -0.09300
C2962       C  0.54492325  0.61347138  0.49264610    -0.16900
H2963       H  0.46142902  0.65624625  0.44677774     0.11200
H2964       H  0.49041539  0.65304129  0.45483626     0.10500
H2965       H  0.48156712  0.61346022  0.51481209     0.10400
H2966       H  0.45254350  0.61649814  0.50707270     0.10900
H2967       H  0.53941901  0.65393557  0.49817130     0.11000
H2968       H  0.56838224  0.65294602  0.50723877     0.11000
H2969       H  0.56745563  0.60120479  0.49826110     0.11100
H2970       H  0.53832511  0.60242114  0.48906929     0.09900
C2971       C  0.80383266  0.61400337  0.74568029    -0.03900
C2972       C  0.79755281  0.62771915  0.73120137    -0.09600
C2973       C  0.78291019  0.62702011  0.71585420    -0.17300
C2974       C  0.77428148  0.61262208  0.71458571     0.24900
C2975       C  0.78038041  0.59889485  0.72887277    -0.19000
C2976       C  0.79504183  0.59956614  0.74435137    -0.07900
C2977       C  0.75908991  0.61208754  0.69894376    -0.14300
C2978       C  0.74626164  0.61219518  0.68620124    -0.14000
C2979       C  0.73077589  0.61284420  0.67159045     0.24800
C2980       C  0.72611338  0.60069414  0.65176133    -0.19400
C2981       C  0.71105624  0.60134394  0.63771315    -0.07900
C2982       C  0.70044976  0.61423176  0.64315934    -0.04000
C2983       C  0.70525600  0.62637025  0.66322163    -0.09300
C2984       C  0.72028699  0.62565439  0.67731326    -0.16900
H2985       H  0.80391507  0.63905856  0.73176106     0.11200
H2986       H  0.77830729  0.63774196  0.70499388     0.10500
H2987       H  0.77379419  0.58767871  0.72809291     0.10400
H2988       H  0.79950706  0.58877882  0.75514531     0.10900
H2989       H  0.73412090  0.59071866  0.64712243     0.11000
H2990       H  0.70780284  0.59183005  0.62235416     0.11000
H2991       H  0.69741224  0.63644043  0.66806177     0.11100
H2992       H  0.72373806  0.63511986  0.69265455     0.09900
C2993       C  0.63678863  0.80491745  0.03820598    -0.03900
C2994       C  0.65198912  0.79752432  0.03619268    -0.09600
C2995       C  0.65376478  0.78115313  0.04307907    -0.17300
C2996       C  0.64034321  0.77207625  0.05168912     0.24900
C2997       C  0.62505998  0.77909616  0.05138436    -0.19000
C2998       C  0.62327976  0.79537342  0.04470091    -0.07900
C2999       C  0.64205023  0.75597143  0.06312484    -0.14300
C3000       C  0.64149013  0.74266128  0.07381960    -0.14000
C3001       C  0.63871949  0.72667710  0.08506825     0.24800
C3002       C  0.62375805  0.71953102  0.08014337    -0.19400
C3003       C  0.62141154  0.70337109  0.08709697    -0.07900
C3004       C  0.63407213  0.69400770  0.09887733    -0.04000
C3005       C  0.64869441  0.70160355  0.10604532    -0.09300
C3006       C  0.65100670  0.71788545  0.09908464    -0.16900
H3007       H  0.66262490  0.80462210  0.03167038     0.11200
H3008       H  0.66565808  0.77580868  0.04314611     0.10500
H3009       H  0.61458237  0.77217607  0.05783147     0.10400
H3010       H  0.61143361  0.80073634  0.04647263     0.10900
H3011       H  0.61410378  0.72625501  0.06961188     0.11000
H3012       H  0.60995144  0.69797450  0.08147803     0.11000
H3013       H  0.65868618  0.69474404  0.11500863     0.11100
H3014       H  0.66259673  0.72337500  0.10327713     0.09900
C3015       C  0.62778408  0.43330223  0.00348023    -0.03900
C3016       C  0.64196375  0.44253872  0.00158812    -0.09600
C3017       C  0.64215859  0.45857063  0.01099968    -0.17300
C3018       C  0.62822654  0.46571872  0.02247724     0.24900
C3019       C  0.61415594  0.45657313  0.02514766    -0.19000
C3020       C  0.61393199  0.44047971  0.01579286    -0.07900
C3021       C  0.62832678  0.48259568  0.03016246    -0.14300
C3022       C  0.62913470  0.49688716  0.03485093    -0.14000
C3023       C  0.63088352  0.51404728  0.03864578     0.24800
C3024       C  0.64569378  0.52047472  0.04754826    -0.19400
C3025       C  0.64767961  0.53713574  0.04990421    -0.07900
C3026       C  0.63488584  0.54766247  0.04314330    -0.04000
C3027       C  0.62002039  0.54108390  0.03435099    -0.09300
C3028       C  0.61803533  0.52441042  0.03221419    -0.16900
H3029       H  0.65289745  0.43746894  0.99239276     0.11200
H3030       H  0.65313300  0.46548483  0.00881442     0.10500
H3031       H  0.60327669  0.46195216  0.03397478     0.10400
H3032       H  0.60282121  0.43378159  0.01761194     0.10900
H3033       H  0.65576004  0.51260542  0.05245470     0.11000
H3034       H  0.65927587  0.54177236  0.05676477     0.11000
H3035       H  0.60987311  0.54881518  0.02932746     0.11100
H3036       H  0.60651363  0.51961316  0.02527973     0.09900
C3037       C  0.57011878  0.62715189  0.00283887    -0.03900
C3038       C  0.56237462  0.61304638  0.99309304    -0.09600
C3039       C  0.54583562  0.61308194  0.98693140    -0.17300
C3040       C  0.53683410  0.62721570  0.99025009     0.24900
C3041       C  0.54458765  0.64146739  0.99839208    -0.19000
C3042       C  0.56107520  0.64146520  0.00461438    -0.07900
C3043       C  0.51955229  0.62707998  0.98698731    -0.14300
C3044       C  0.50505892  0.62796482  0.98553892    -0.14000
C3045       C  0.48785531  0.63024127  0.98387341     0.24800
C3046       C  0.48161513  0.64331795  0.96789547    -0.19400
C3047       C  0.46498583  0.64557122  0.96563829    -0.07900
C3048       C  0.45424920  0.63473217  0.97932011    -0.04000
C3049       C  0.46064933  0.62180040  0.99596766    -0.09300
C3050       C  0.47733257  0.61958492  0.99821173    -0.16900
H3051       H  0.56892985  0.60182536  0.99144195     0.11200
H3052       H  0.53999391  0.60198049  0.98050263     0.10500
H3053       H  0.53778193  0.65250540  0.00087915     0.10400
H3054       H  0.56659133  0.65257445  0.01190464     0.10900
H3055       H  0.48962146  0.65170052  0.95684315     0.11000
H3056       H  0.46056139  0.65561583  0.95254109     0.11000
H3057       H  0.45278573  0.61318701  0.00671742     0.11100
H3058       H  0.48200588  0.60946209  0.01081657     0.09900
C3059       C  0.63397276  0.62818548  0.71258074    -0.03900
C3060       C  0.62437050  0.61738306  0.72907116    -0.09600
C3061       C  0.62592300  0.61615953  0.76009076    -0.17300
C3062       C  0.63701801  0.62572960  0.77531957     0.24900
C3063       C  0.64642451  0.63677224  0.75935676    -0.19000
C3064       C  0.64493791  0.63799138  0.72814554    -0.07900
C3065       C  0.63887981  0.62377319  0.80719555    -0.14300
C3066       C  0.63990579  0.62127215  0.83375171    -0.14000
C3067       C  0.64072735  0.61798616  0.86540514     0.24800
C3068       C  0.65515838  0.62023288  0.88096089    -0.19400
C3069       C  0.65571013  0.61800442  0.91197478    -0.07900
C3070       C  0.64181151  0.61347125  0.92788902    -0.04000
C3071       C  0.62754975  0.61049083  0.91186928    -0.09300
C3072       C  0.62700534  0.61282801  0.88083505    -0.16900
H3073       H  0.61588166  0.60952860  0.71797505     0.11200
H3074       H  0.61860662  0.60755080  0.77216652     0.10500
H3075       H  0.65507391  0.64424440  0.77095204     0.10400
H3076       H  0.65257314  0.64635169  0.71619650     0.10900
H3077       H  0.66588651  0.62409509  0.86923904     0.11000
H3078       H  0.66689903  0.62032098  0.92363201     0.11000
H3079       H  0.61662587  0.60711994  0.92346781     0.11100
H3080       H  0.61578047  0.61098684  0.86898523     0.09900
C3081       C  0.63903871  0.61438646  0.42812986    -0.03900
C3082       C  0.62695504  0.60599620  0.41251961    -0.09600
C3083       C  0.62582187  0.60714147  0.38123218    -0.17300
C3084       C  0.63673123  0.61667206  0.36517787     0.24900
C3085       C  0.64897574  0.62471624  0.38045521    -0.19000
C3086       C  0.65014939  0.62358729  0.41157514    -0.07900
C3087       C  0.63518540  0.61877688  0.33320643    -0.14300
C3088       C  0.63422587  0.62125985  0.30659031    -0.14000
C3089       C  0.63300504  0.62417429  0.27477518     0.24800
C3090       C  0.64532203  0.63216750  0.25935141    -0.19400
C3091       C  0.64447430  0.63408200  0.22815948    -0.07900
C3092       C  0.63131533  0.62791878  0.21197858    -0.04000
C3093       C  0.61873539  0.62047099  0.22793703    -0.09300
C3094       C  0.61959257  0.61862016  0.25900949    -0.16900
H3095       H  0.61817837  0.59885007  0.42448627     0.11200
H3096       H  0.61627626  0.60083987  0.36964942     0.10500
H3097       H  0.65748417  0.63212388  0.36833518     0.10400
H3098       H  0.65959689  0.63025555  0.42268546     0.10900
H3099       H  0.65575179  0.63658747  0.27132844     0.11000
H3100       H  0.65439763  0.63979048  0.21662797     0.11000
H3101       H  0.60837776  0.61565294  0.21630715     0.11100
H3102       H  0.60993475  0.61251763  0.27065448     0.09900
C3103       C  0.69884394  0.61367074  0.14726918    -0.03900
C3104       C  0.70888578  0.60007653  0.14478214    -0.09600
C3105       C  0.72338842  0.59920355  0.16071738    -0.17300
C3106       C  0.72806021  0.61185275  0.17943943     0.24900
C3107       C  0.71800864  0.62525522  0.18255531    -0.19000
C3108       C  0.70352814  0.62617414  0.16664394    -0.07900
C3109       C  0.74338184  0.61139470  0.19467971    -0.14300
C3110       C  0.75633937  0.61162069  0.20696638    -0.14000
C3111       C  0.77189681  0.61245160  0.22128651     0.24800
C3112       C  0.78245970  0.62500039  0.21432222    -0.19400
C3113       C  0.79749289  0.62595453  0.22835247    -0.07900
C3114       C  0.80223757  0.61430663  0.24955295    -0.04000
C3115       C  0.79154616  0.60169510  0.25629348    -0.09300
C3116       C  0.77648742  0.60081165  0.24231251    -0.16900
H3117       H  0.70565314  0.59019038  0.13024431     0.11200
H3118       H  0.73104781  0.58874861  0.15813935     0.10500
H3119       H  0.72146050  0.63511003  0.19701829     0.10400
H3120       H  0.69608100  0.63676210  0.16936156     0.10900
H3121       H  0.77906275  0.63408137  0.19807202     0.11000
H3122       H  0.80541353  0.63578570  0.22248310     0.11000
H3123       H  0.79475499  0.59255949  0.27254412     0.11100
H3124       H  0.76841690  0.59105644  0.24794825     0.09900
C3125       C  0.30927548  0.86115348  0.71565005    -0.03900
C3126       C  0.30285888  0.84563844  0.71953158    -0.09600
C3127       C  0.28635870  0.84290998  0.71533609    -0.17300
C3128       C  0.27616082  0.85568916  0.70752761     0.24900
C3129       C  0.28239412  0.87121430  0.70488916    -0.19000
C3130       C  0.29879038  0.87393984  0.70886905    -0.07900
C3131       C  0.25937531  0.85318880  0.70109601    -0.14300
C3132       C  0.24528705  0.85344608  0.69460297    -0.14000
C3133       C  0.22869131  0.85621683  0.68681447     0.24800
C3134       C  0.22277813  0.87196395  0.68653875    -0.19400
C3135       C  0.20660311  0.87491973  0.68016313    -0.07900
C3136       C  0.19604949  0.86214789  0.67378971    -0.04000
C3137       C  0.20216815  0.84636895  0.67334482    -0.09300
C3138       C  0.21840701  0.84342675  0.67990691    -0.16900
H3139       H  0.31066724  0.83553646  0.72445172     0.11200
H3140       H  0.28164883  0.83083045  0.71746113     0.10500
H3141       H  0.27461375  0.88119814  0.69898647     0.10400
H3142       H  0.30333431  0.88602558  0.70580968     0.10900
H3143       H  0.23062739  0.88196621  0.69175952     0.11000
H3144       H  0.20228718  0.88720731  0.68081874     0.11000
H3145       H  0.19429888  0.83627638  0.66901156     0.11100
H3146       H  0.22286423  0.83118515  0.68007806     0.09900
C3147       C  0.05091065  0.86206844  0.73027175    -0.03900
C3148       C  0.04072782  0.85001094  0.71886807    -0.09600
C3149       C  0.02406429  0.85108322  0.72248775    -0.17300
C3150       C  0.01732464  0.86416739  0.73760260     0.24900
C3151       C  0.02735835  0.87582662  0.75023925    -0.19000
C3152       C  0.04404683  0.87478399  0.74667741    -0.07900
C3153       C  0.00011448  0.86587259  0.73931039    -0.14300
C3154       C  0.98568671  0.86719068  0.74073116    -0.14000
C3155       C  0.96848379  0.86820116  0.74390221     0.24800
C3156       C  0.95967035  0.85425358  0.74972007    -0.19400
C3157       C  0.94322393  0.85522435  0.75576743    -0.07900
C3158       C  0.93530605  0.87020481  0.75609922    -0.04000
C3159       C  0.94412480  0.88411541  0.74885823    -0.09300
C3160       C  0.96063687  0.88310685  0.74289432    -0.16900
H3161       H  0.04557168  0.83998791  0.70631458     0.11200
H3162       H  0.01641682  0.84191319  0.71283752     0.10500
H3163       H  0.02226145  0.88594518  0.76219042     0.10400
H3164       H  0.05149453  0.88424064  0.75584624     0.10900
H3165       H  0.96560805  0.84265359  0.75047380     0.11000
H3166       H  0.93682266  0.84426496  0.76111203     0.11000
H3167       H  0.93843689  0.89583515  0.74903488     0.11100
H3168       H  0.96735777  0.89398991  0.73838480     0.09900
C3169       C  0.13500476  0.04856720  0.78323070    -0.03900
C3170       C  0.12072918  0.04248920  0.77059406    -0.09600
C3171       C  0.11882455  0.02599751  0.76618216    -0.17300
C3172       C  0.13116340  0.01539844  0.77420434     0.24900
C3173       C  0.14546305  0.02130562  0.78647746    -0.19000
C3174       C  0.14737566  0.03779054  0.79105846    -0.07900
C3175       C  0.12920088  0.99844478  0.76984988    -0.14300
C3176       C  0.12810344  0.98418138  0.76608804    -0.14000
C3177       C  0.12772230  0.96718038  0.76093638     0.24800
C3178       C  0.11303796  0.95903960  0.75916929    -0.19400
C3179       C  0.11278124  0.94260669  0.75268473    -0.07900
C3180       C  0.12723717  0.93420837  0.74766779    -0.04000
C3181       C  0.14193528  0.94246575  0.75023697    -0.09300
C3182       C  0.14215437  0.95883608  0.75685685    -0.16900
H3183       H  0.11091217  0.05042830  0.76455281     0.11200
H3184       H  0.10771044  0.02151367  0.75666529     0.10500
H3185       H  0.15509887  0.01315856  0.79265777     0.10400
H3186       H  0.15850641  0.04208036  0.80078057     0.10900
H3187       H  0.10180147  0.96543690  0.76229320     0.11000
H3188       H  0.10127814  0.93661313  0.75067848     0.11000
H3189       H  0.15327520  0.93633770  0.74664778     0.11100
H3190       H  0.15357775  0.96504761  0.75827529     0.09900
C3191       C  0.19489269  0.86338849  0.17014314    -0.03900
C3192       C  0.20501250  0.87559127  0.18114771    -0.09600
C3193       C  0.22138017  0.87277959  0.18546130    -0.17300
C3194       C  0.22800445  0.85775418  0.17891053     0.24900
C3195       C  0.21819168  0.84557971  0.16726232    -0.19000
C3196       C  0.20170039  0.84838733  0.16282653    -0.07900
C3197       C  0.24484412  0.85515890  0.18483656    -0.14300
C3198       C  0.25895793  0.85537433  0.19113980    -0.14000
C3199       C  0.27555959  0.85815524  0.19877975     0.24800
C3200       C  0.28515323  0.84590013  0.21089129    -0.19400
C3201       C  0.30142904  0.84875455  0.21716719    -0.07900
C3202       C  0.30827905  0.86388979  0.21117873    -0.04000
C3203       C  0.29831765  0.87627545  0.20018503    -0.09300
C3204       C  0.28212143  0.87340802  0.19402154    -0.16900
H3205       H  0.20024013  0.88728938  0.18701404     0.11200
H3206       H  0.22885477  0.88230380  0.19438156     0.10500
H3207       H  0.22321116  0.83388926  0.16207410     0.10400
H3208       H  0.19422599  0.83870790  0.15457727     0.10900
H3209       H  0.28015415  0.83407586  0.21489263     0.11000
H3210       H  0.30877942  0.83894171  0.22542560     0.11000
H3211       H  0.30315377  0.88808567  0.19541530     0.11100
H3212       H  0.27477718  0.88303547  0.18495901     0.09900
C3213       C  0.05014135  0.86174344  0.23106551    -0.03900
C3214       C  0.04322251  0.87496370  0.24597331    -0.09600
C3215       C  0.02650114  0.87636483  0.24843274    -0.17300
C3216       C  0.01649903  0.86455389  0.23619896     0.24900
C3217       C  0.02326658  0.85108852  0.22235989    -0.19000
C3218       C  0.03995225  0.84966984  0.21980506    -0.07900
C3219       C  0.99929088  0.86632107  0.23727288    -0.14300
C3220       C  0.98484024  0.86743226  0.23815535    -0.14000
C3221       C  0.96761161  0.86826945  0.24073296     0.24800
C3222       C  0.95968677  0.88311949  0.23944273    -0.19400
C3223       C  0.94317243  0.88406836  0.24530417    -0.07900
C3224       C  0.93442957  0.87014552  0.25269714    -0.04000
C3225       C  0.94239106  0.85517721  0.25232856    -0.09300
C3226       C  0.95885557  0.85427148  0.24644467    -0.16900
H3227       H  0.05067180  0.88451807  0.25478283     0.11200
H3228       H  0.02137602  0.88681445  0.25931209     0.10500
H3229       H  0.01562965  0.84183362  0.21296840     0.10400
H3230       H  0.04483227  0.83933222  0.20822307     0.10900
H3231       H  0.96636810  0.89402735  0.23494749     0.11000
H3232       H  0.93744378  0.89576752  0.24542620     0.11000
H3233       H  0.93604412  0.84419494  0.25774580     0.11100
H3234       H  0.96485480  0.84270552  0.24737340     0.09900
C3235       C  0.12623081  0.93402225  0.24994068    -0.03900
C3236       C  0.11208663  0.94279408  0.25568669    -0.09600
C3237       C  0.11295704  0.95899336  0.26408046    -0.17300
C3238       C  0.12794974  0.96650037  0.26712195     0.24900
C3239       C  0.14204871  0.95770214  0.26237574    -0.19000
C3240       C  0.14121410  0.94161134  0.25379196    -0.07900
C3241       C  0.12901437  0.98340520  0.27354187    -0.14300
C3242       C  0.13056520  0.99765625  0.27737573    -0.14000
C3243       C  0.13267615  0.01472009  0.28067922     0.24800
C3244       C  0.14482146  0.02072565  0.29923256    -0.19400
C3245       C  0.14679800  0.03731138  0.30251020    -0.07900
C3246       C  0.13664866  0.04813956  0.28718627    -0.04000
C3247       C  0.12460877  0.04194509  0.26826809    -0.09300
C3248       C  0.12265593  0.02535456  0.26506815    -0.16900
H3249       H  0.10039044  0.93729571  0.25278949     0.11200
H3250       H  0.10195950  0.96573103  0.26761916     0.10500
H3251       H  0.15370747  0.96337697  0.26469277     0.10400
H3252       H  0.15233096  0.93515202  0.24980944     0.10900
H3253       H  0.15270853  0.01259368  0.31129323     0.11000
H3254       H  0.15618857  0.04162657  0.31725878     0.11000
H3255       H  0.11656523  0.04988589  0.25617012     0.11100
H3256       H  0.11326784  0.02081934  0.25052587     0.09900
C3257       C  0.11693089  0.86408383  0.83118144    -0.03900
C3258       C  0.12471574  0.85197981  0.84792427    -0.09600
C3259       C  0.12572510  0.85303219  0.87905644    -0.17300
C3260       C  0.11899820  0.86616626  0.89398327     0.24900
C3261       C  0.11099696  0.87815400  0.87768423    -0.19000
C3262       C  0.10995275  0.87713177  0.84646487    -0.07900
C3263       C  0.12068618  0.86745356  0.92594291    -0.14300
C3264       C  0.12240836  0.86841650  0.95267735    -0.14000
C3265       C  0.12427291  0.86971646  0.98460760     0.24800
C3266       C  0.11670706  0.88224997  0.99992979    -0.19400
C3267       C  0.11794991  0.88328489  0.03104311    -0.07900
C3268       C  0.12680532  0.87176227  0.04737756    -0.04000
C3269       C  0.13468121  0.85938703  0.03167535    -0.09300
C3270       C  0.13338558  0.85836756  0.00047737    -0.16900
H3271       H  0.13027730  0.84178701  0.83697268     0.11200
H3272       H  0.13194860  0.84369451  0.89145696     0.10500
H3273       H  0.10576133  0.88839354  0.88905722     0.10400
H3274       H  0.10398212  0.88670816  0.83430220     0.10900
H3275       H  0.10964412  0.89110686  0.98786464     0.11000
H3276       H  0.11170106  0.89296224  0.04232996     0.11000
H3277       H  0.14146317  0.85024658  0.04352605     0.11100
H3278       H  0.13928808  0.84860069  0.98879546     0.09900
C3279       C  0.11967111  0.86540787  0.33211751    -0.03900
C3280       C  0.12799754  0.85337697  0.34811371    -0.09600
C3281       C  0.13056531  0.85481764  0.37885052    -0.17300
C3282       C  0.12489114  0.86827845  0.39420283     0.24900
C3283       C  0.11632199  0.88022315  0.37875122    -0.19000
C3284       C  0.11370549  0.87880401  0.34785415    -0.07900
C3285       C  0.12780208  0.86958702  0.42585409    -0.14300
C3286       C  0.12987458  0.87006368  0.45254455    -0.14000
C3287       C  0.13087389  0.87072354  0.48465473     0.24800
C3288       C  0.12084673  0.88133248  0.50002989    -0.19400
C3289       C  0.12083077  0.88155316  0.53120306    -0.07900
C3290       C  0.13086561  0.87110924  0.54767409    -0.04000
C3291       C  0.14114174  0.86059846  0.53203508    -0.09300
C3292       C  0.14113187  0.86041623  0.50064107    -0.16900
H3293       H  0.13277203  0.84290172  0.33681482     0.11200
H3294       H  0.13711758  0.84546656  0.39061447     0.10500
H3295       H  0.11181066  0.89068162  0.39050157     0.10400
H3296       H  0.10737496  0.88834038  0.33622180     0.10900
H3297       H  0.11281336  0.88929099  0.48789246     0.11000
H3298       H  0.11270805  0.88977798  0.54235304     0.11000
H3299       H  0.14895771  0.85236593  0.54399283     0.11100
H3300       H  0.14890470  0.85208672  0.48888743     0.09900
C3301       C  0.30898711  0.63687229  0.91608471    -0.03900
C3302       C  0.30218098  0.65190283  0.90890461    -0.09600
C3303       C  0.28564380  0.65455778  0.91278066    -0.17300
C3304       C  0.27581024  0.64221441  0.92373595     0.24900
C3305       C  0.28238391  0.62705940  0.92951264    -0.19000
C3306       C  0.29880126  0.62439435  0.92574382    -0.07900
C3307       C  0.25913085  0.64497933  0.93065048    -0.14300
C3308       C  0.24517296  0.64522689  0.93796338    -0.14000
C3309       C  0.22862635  0.64286874  0.94633789     0.24800
C3310       C  0.21930159  0.65539115  0.95820359    -0.19400
C3311       C  0.20297485  0.65287374  0.96476241    -0.07900
C3312       C  0.19587601  0.63779311  0.95943086    -0.04000
C3313       C  0.20560754  0.62519840  0.94857941    -0.09300
C3314       C  0.22178398  0.62773442  0.94208950    -0.16900
H3315       H  0.30969862  0.66175988  0.90153668     0.11200
H3316       H  0.28063568  0.66632750  0.90811050     0.10500
H3317       H  0.27488005  0.61739079  0.93781431     0.10400
H3318       H  0.30358155  0.61264149  0.93130506     0.10900
H3319       H  0.22454014  0.66714645  0.96176311     0.11000
H3320       H  0.19581287  0.66282866  0.97290516     0.11000
H3321       H  0.20062968  0.61340024  0.94430410     0.11100
H3322       H  0.22889788  0.61792022  0.93316764     0.09900
C3323       C  0.93417923  0.62804680  0.88242191    -0.03900
C3324       C  0.94172663  0.61415918  0.89387109    -0.09600
C3325       C  0.95830074  0.61402976  0.89940023    -0.17300
C3326       C  0.96749881  0.62776424  0.89365500     0.24900
C3327       C  0.96002957  0.64176123  0.88322178    -0.19000
C3328       C  0.94350563  0.64193644  0.87769990    -0.07900
C3329       C  0.98466445  0.62752507  0.89758477    -0.14300
C3330       C  0.99907818  0.62828443  0.90002204    -0.14000
C3331       C  0.01619468  0.63028563  0.90271803     0.24800
C3332       C  0.02233758  0.64376845  0.91745681    -0.19400
C3333       C  0.03894282  0.64584606  0.92028448    -0.07900
C3334       C  0.04967050  0.63444112  0.90833524    -0.04000
C3335       C  0.04334872  0.62101102  0.89315054    -0.09300
C3336       C  0.02672020  0.61895548  0.89040628    -0.16900
H3337       H  0.93495539  0.60323324  0.89760340     0.11200
H3338       H  0.96398255  0.60313127  0.90752342     0.10500
H3339       H  0.96704426  0.65246365  0.87873872     0.10400
H3340       H  0.93815752  0.65282010  0.86879239     0.10900
H3341       H  0.01427566  0.65263965  0.92696223     0.11000
H3342       H  0.04335201  0.65626810  0.93221610     0.11000
H3343       H  0.05121732  0.61192560  0.88383631     0.11100
H3344       H  0.02208465  0.60849292  0.87886487     0.09900
C3345       C  0.11499286  0.69853708  0.01465030    -0.03900
C3346       C  0.10072959  0.70772894  0.01467758    -0.09600
C3347       C  0.10013876  0.72269342  0.02915003    -0.17300
C3348       C  0.11376128  0.72872548  0.04385421     0.24900
C3349       C  0.12794770  0.71963906  0.04405926    -0.19000
C3350       C  0.12857310  0.70471307  0.02966119    -0.07900
C3351       C  0.11332571  0.74422784  0.05860729    -0.14300
C3352       C  0.11349525  0.75716762  0.07102551    -0.14000
C3353       C  0.11409017  0.77263281  0.08588367     0.24800
C3354       C  0.12844576  0.78142491  0.08658853    -0.19400
C3355       C  0.12907710  0.79635361  0.10105681    -0.07900
C3356       C  0.11533697  0.80276166  0.11523053    -0.04000
C3357       C  0.10095392  0.79384310  0.11429648    -0.09300
C3358       C  0.10035167  0.77893107  0.09975231    -0.16900
H3359       H  0.09004012  0.70340428  0.00342396     0.11200
H3360       H  0.08906408  0.72957480  0.02878618     0.10500
H3361       H  0.13858533  0.72411542  0.05531248     0.10400
H3362       H  0.13976866  0.69804946  0.03022522     0.10900
H3363       H  0.13918490  0.77672501  0.07599403     0.11000
H3364       H  0.14037735  0.80280882  0.10129377     0.11000
H3365       H  0.09014214  0.79835705  0.12487248     0.11100
H3366       H  0.08915487  0.77229161  0.09940204     0.09900
C3367       C  0.19568533  0.63994984  0.46329129    -0.03900
C3368       C  0.20159850  0.65539354  0.46995465    -0.09600
C3369       C  0.21781893  0.65911753  0.46501847    -0.17300
C3370       C  0.22824999  0.64742588  0.45352570     0.24900
C3371       C  0.22255255  0.63194392  0.44774748    -0.19000
C3372       C  0.20642825  0.62821752  0.45255143    -0.07900
C3373       C  0.24481768  0.65096584  0.44712493    -0.14300
C3374       C  0.25890524  0.65118615  0.44080849    -0.14000
C3375       C  0.27550565  0.64811461  0.43375887     0.24800
C3376       C  0.28588601  0.66046872  0.42484201    -0.19400
C3377       C  0.30217099  0.65712738  0.41943323    -0.07900
C3378       C  0.30820102  0.64140250  0.42309538    -0.04000
C3379       C  0.29749508  0.62905422  0.43112496    -0.09300
C3380       C  0.28130764  0.63239665  0.43635279    -0.16900
H3381       H  0.19360892  0.66472393  0.47800879     0.11200
H3382       H  0.22213707  0.67113521  0.46966155     0.10500
H3383       H  0.23054947  0.62278270  0.43901107     0.10400
H3384       H  0.20231697  0.61621282  0.44720855     0.10900
H3385       H  0.28148561  0.67267841  0.42263895     0.11000
H3386       H  0.31012890  0.66691775  0.41350237     0.11000
H3387       H  0.30169852  0.61682222  0.43405092     0.11100
H3388       H  0.27335095  0.62272631  0.44302038     0.09900
C3389       C  0.04993029  0.63435225  0.41064069    -0.03900
C3390       C  0.03922538  0.64442635  0.42633425    -0.09600
C3391       C  0.02261113  0.64233050  0.42385768    -0.17300
C3392       C  0.01638917  0.63016822  0.40568542     0.24900
C3393       C  0.02687651  0.62006494  0.38995672    -0.19000
C3394       C  0.04354198  0.62211536  0.39242624    -0.07900
C3395       C  0.99923607  0.62847699  0.40256007    -0.14300
C3396       C  0.98483676  0.62796506  0.39939996    -0.14000
C3397       C  0.96773927  0.62828042  0.39426637     0.24800
C3398       C  0.95816928  0.61507006  0.40191262    -0.19400
C3399       C  0.94171695  0.61511511  0.39516771    -0.07900
C3400       C  0.93464135  0.62839730  0.38063254    -0.04000
C3401       C  0.94431520  0.64182822  0.37396777    -0.09300
C3402       C  0.96072671  0.64172927  0.38067185    -0.16900
H3403       H  0.04366061  0.65385130  0.44083785     0.11200
H3404       H  0.01460822  0.65023206  0.43610312     0.10500
H3405       H  0.02217889  0.61062026  0.37576725     0.10400
H3406       H  0.05139753  0.61404545  0.38027130     0.10900
H3407       H  0.96347927  0.60460532  0.41251027     0.11000
H3408       H  0.93465655  0.60458156  0.40058631     0.11000
H3409       H  0.93933866  0.65225168  0.36270809     0.11100
H3410       H  0.96801584  0.65202997  0.37468281     0.09900
C3411       C  0.13095128  0.62728855  0.58633718    -0.03900
C3412       C  0.13682568  0.64025948  0.60326354    -0.09600
C3413       C  0.13532541  0.64020204  0.63451052    -0.17300
C3414       C  0.12807611  0.62715056  0.64907691     0.24900
C3415       C  0.12287431  0.61393368  0.63250468    -0.19000
C3416       C  0.12433836  0.61395975  0.60142133    -0.07900
C3417       C  0.12540370  0.62745801  0.68086853    -0.14300
C3418       C  0.12291011  0.62788727  0.70742433    -0.14000
C3419       C  0.12060455  0.62945559  0.73918127     0.24800
C3420       C  0.11031022  0.61912344  0.75491922    -0.19400
C3421       C  0.10853426  0.62073157  0.78601260    -0.07900
C3422       C  0.11704112  0.63273244  0.80156479    -0.04000
C3423       C  0.12708631  0.64318548  0.78523107    -0.09300
C3424       C  0.12887251  0.64150965  0.75441215    -0.16900
H3425       H  0.14191319  0.65070689  0.59233281     0.11200
H3426       H  0.13943120  0.65049302  0.64721495     0.10500
H3427       H  0.11732087  0.60375179  0.64354788     0.10400
H3428       H  0.11980580  0.60370855  0.58912999     0.10900
H3429       H  0.10381784  0.60974927  0.74324496     0.11000
H3430       H  0.10077163  0.61245133  0.79787454     0.11000
H3431       H  0.13390265  0.65253073  0.79630336     0.11100
H3432       H  0.13684841  0.64956937  0.74247094     0.09900
C3433       C  0.12941733  0.63235747  0.08578085    -0.03900
C3434       C  0.13798199  0.64429516  0.10135850    -0.09600
C3435       C  0.13706336  0.64518357  0.13268762    -0.17300
C3436       C  0.12761864  0.63415522  0.14866018     0.24900
C3437       C  0.11935094  0.62212133  0.13335728    -0.19000
C3438       C  0.12024731  0.62119454  0.10228199    -0.07900
C3439       C  0.12598507  0.63518503  0.18068006    -0.14300
C3440       C  0.12396840  0.63555123  0.20740902    -0.14000
C3441       C  0.12169355  0.63621817  0.23934555     0.24800
C3442       C  0.11455136  0.62339501  0.25476827    -0.19400
C3443       C  0.11295244  0.62395246  0.28600362    -0.07900
C3444       C  0.11854951  0.63733972  0.30216535    -0.04000
C3445       C  0.12541536  0.65026728  0.28625224    -0.09300
C3446       C  0.12694296  0.64969802  0.25514932    -0.16900
H3447       H  0.14506178  0.65311623  0.08936313     0.11200
H3448       H  0.14351833  0.65457404  0.14438477     0.10500
H3449       H  0.11202141  0.61352933  0.14544550     0.10400
H3450       H  0.11349153  0.61181247  0.09118330     0.10900
H3451       H  0.11042934  0.61288504  0.24271913     0.11000
H3452       H  0.10772572  0.61376289  0.29752705     0.11000
H3453       H  0.12983824  0.66078650  0.29786967     0.11100
H3454       H  0.13243784  0.65970350  0.24345975     0.09900
C3455       C  0.11490642  0.69821375  0.51715659    -0.03900
C3456       C  0.10034506  0.70684501  0.51885470    -0.09600
C3457       C  0.09975172  0.72187750  0.53296100    -0.17300
C3458       C  0.11368160  0.72854266  0.54548867     0.24900
C3459       C  0.12822731  0.72010448  0.54373368    -0.19000
C3460       C  0.12885157  0.70508603  0.52973677    -0.07900
C3461       C  0.11312737  0.74401695  0.56012567    -0.14300
C3462       C  0.11313730  0.75695334  0.57244245    -0.14000
C3463       C  0.11379811  0.77240424  0.58715263     0.24800
C3464       C  0.12841721  0.78066293  0.58903448    -0.19400
C3465       C  0.12923000  0.79555206  0.60348920    -0.07900
C3466       C  0.11540506  0.80246286  0.61643772    -0.04000
C3467       C  0.10072509  0.79408049  0.61434296    -0.09300
C3468       C  0.09994271  0.77918286  0.59978168    -0.16900
H3469       H  0.08939975  0.70198223  0.50935855     0.11200
H3470       H  0.08842044  0.72829793  0.53409913     0.10500
H3471       H  0.13911307  0.72513046  0.55321749     0.10400
H3472       H  0.14030788  0.69889780  0.52870745     0.10900
H3473       H  0.13923304  0.77556511  0.57938634     0.11000
H3474       H  0.14074078  0.80159070  0.60465887     0.11000
H3475       H  0.08983473  0.79901474  0.62395685     0.11100
H3476       H  0.08854114  0.77293278  0.59847048     0.09900
C3477       C  0.13571878  0.19374961  0.84885167    -0.03900
C3478       C  0.12273951  0.20381575  0.84113341    -0.09600
C3479       C  0.12534859  0.21993172  0.83399585    -0.17300
C3480       C  0.14092917  0.22623317  0.83441241     0.24900
C3481       C  0.15377475  0.21666890  0.84425156    -0.19000
C3482       C  0.15116864  0.20050855  0.85164863    -0.07900
C3483       C  0.14356715  0.24210731  0.82256538    -0.14300
C3484       C  0.14368466  0.25533492  0.81149292    -0.14000
C3485       C  0.14138062  0.27130792  0.79981836     0.24800
C3486       C  0.15445906  0.28066536  0.79054862    -0.19400
C3487       C  0.15223545  0.29699210  0.78392293    -0.07900
C3488       C  0.13693989  0.30408591  0.78696037    -0.04000
C3489       C  0.12370050  0.29423304  0.79376401    -0.09300
C3490       C  0.12592534  0.27796425  0.80013760    -0.16900
H3491       H  0.11070600  0.19899736  0.83881672     0.11200
H3492       H  0.11530249  0.22727074  0.82665305     0.10500
H3493       H  0.16588259  0.22145568  0.84481093     0.10400
H3494       H  0.16142811  0.19304770  0.85726619     0.10900
H3495       H  0.16646402  0.27558758  0.79000066     0.11000
H3496       H  0.16266168  0.30429167  0.77886526     0.11000
H3497       H  0.11176469  0.29932754  0.79607153     0.11100
H3498       H  0.11569325  0.27078768  0.80696603     0.09900
C3499       C  0.12619843  0.56461250  0.88908463    -0.03900
C3500       C  0.14085533  0.55624056  0.88629155    -0.09600
C3501       C  0.14105173  0.54001824  0.87815791    -0.17300
C3502       C  0.12662744  0.53185665  0.87281161     0.24900
C3503       C  0.11198212  0.54010873  0.87511208    -0.19000
C3504       C  0.11175098  0.55638389  0.88310936    -0.07900
C3505       C  0.12691253  0.51490332  0.86603628    -0.14300
C3506       C  0.12769849  0.50062329  0.86138025    -0.14000
C3507       C  0.12938535  0.48354999  0.85660002     0.24800
C3508       C  0.11978058  0.47265154  0.87243662    -0.19400
C3509       C  0.12187803  0.45607452  0.86853032    -0.07900
C3510       C  0.13367333  0.45014474  0.84872772    -0.04000
C3511       C  0.14316461  0.46124165  0.83278576    -0.09300
C3512       C  0.14102699  0.47778331  0.83671077    -0.16900
H3513       H  0.15220055  0.56219693  0.89055634     0.11200
H3514       H  0.15246612  0.53378143  0.87643289     0.10500
H3515       H  0.10073193  0.53391687  0.87109420     0.10400
H3516       H  0.10025544  0.56242521  0.88514429     0.10900
H3517       H  0.11074296  0.47695977  0.88795191     0.11000
H3518       H  0.11430070  0.44793284  0.88110986     0.11000
H3519       H  0.15227889  0.45716533  0.81723704     0.11100
H3520       H  0.14855026  0.48608462  0.82434978     0.09900
C3521       C  0.13720421  0.30575471  0.28705816    -0.03900
C3522       C  0.12358692  0.29591834  0.29044100    -0.09600
C3523       C  0.12530144  0.27959685  0.29706772    -0.17300
C3524       C  0.14063056  0.27288444  0.30060662     0.24900
C3525       C  0.15427934  0.28232276  0.29524083    -0.19000
C3526       C  0.15258066  0.29868169  0.28829639    -0.07900
C3527       C  0.14211903  0.25671322  0.31195889    -0.14300
C3528       C  0.14190882  0.24328158  0.32223644    -0.14000
C3529       C  0.13998180  0.22706787  0.33310101     0.24800
C3530       C  0.15336762  0.21767708  0.34087788    -0.19400
C3531       C  0.15145275  0.20131896  0.34758264    -0.07900
C3532       C  0.13613248  0.19418562  0.34624060    -0.04000
C3533       C  0.12268234  0.20396833  0.34019932    -0.09300
C3534       C  0.12460406  0.22028060  0.33376238    -0.16900
H3535       H  0.11161106  0.30106284  0.28970237     0.11200
H3536       H  0.11465139  0.27240113  0.30096374     0.10500
H3537       H  0.16621080  0.27724666  0.29784427     0.10400
H3538       H  0.16327560  0.30601924  0.28625792     0.10900
H3539       H  0.16533403  0.22280780  0.34046891     0.11000
H3540       H  0.16204868  0.19405237  0.35173374     0.11000
H3541       H  0.11073961  0.19882108  0.33894813     0.11100
H3542       H  0.11414653  0.22743027  0.32793028     0.09900
C3543       C  0.12777022  0.56570217  0.38999588    -0.03900
C3544       C  0.14238772  0.55709377  0.38993148    -0.09600
C3545       C  0.14263998  0.54064472  0.38370175    -0.17300
C3546       C  0.12831074  0.53250548  0.37753369     0.24900
C3547       C  0.11374356  0.54098037  0.37695864    -0.19000
C3548       C  0.11345880  0.55748410  0.38307561    -0.07900
C3549       C  0.12857937  0.51539741  0.37261736    -0.14300
C3550       C  0.12933863  0.50104811  0.36899764    -0.14000
C3551       C  0.13108770  0.48399577  0.36446263     0.24800
C3552       C  0.14186055  0.47834278  0.34287562    -0.19400
C3553       C  0.14394292  0.46184728  0.33859763    -0.07900
C3554       C  0.13522045  0.45068992  0.35580199    -0.04000
C3555       C  0.12434638  0.45648350  0.37748868    -0.09300
C3556       C  0.12233303  0.47303934  0.38180685    -0.16900
H3557       H  0.15364656  0.56302201  0.39505075     0.11200
H3558       H  0.15399535  0.53422909  0.38413929     0.10500
H3559       H  0.10257655  0.53478866  0.37221229     0.10400
H3560       H  0.10200732  0.56370706  0.38308651     0.10900
H3561       H  0.14869505  0.48670636  0.32932646     0.11000
H3562       H  0.15229034  0.45785226  0.32155914     0.11000
H3563       H  0.11740606  0.44825413  0.39111670     0.11100
H3564       H  0.11397715  0.47728337  0.39865014     0.09900
C3565       C  0.14054954  0.38322325  0.46194460    -0.03900
C3566       C  0.15315999  0.37560363  0.47766311    -0.09600
C3567       C  0.15220018  0.37327814  0.50853269    -0.17300
C3568       C  0.13870779  0.37860488  0.52426251     0.24900
C3569       C  0.12647123  0.38695703  0.50919362    -0.19000
C3570       C  0.12739479  0.38930844  0.47817737    -0.07900
C3571       C  0.13731944  0.37505810  0.55568126    -0.14300
C3572       C  0.13629480  0.37210445  0.58203734    -0.14000
C3573       C  0.13475897  0.36971087  0.61380892     0.24800
C3574       C  0.12205060  0.37705856  0.62897548    -0.19400
C3575       C  0.12109979  0.37609821  0.66009675    -0.07900
C3576       C  0.13291379  0.36779011  0.67667916    -0.04000
C3577       C  0.14535886  0.35988812  0.66113515    -0.09300
C3578       C  0.14627865  0.36087900  0.62984658    -0.16900
H3579       H  0.16357011  0.37091967  0.46599222     0.11200
H3580       H  0.16180836  0.36695076  0.52001026     0.10500
H3581       H  0.11602508  0.39125964  0.52126963     0.10400
H3582       H  0.11752858  0.39526139  0.46680398     0.10900
H3583       H  0.11307619  0.38391364  0.61679018     0.11000
H3584       H  0.11132946  0.38230409  0.67120034     0.11000
H3585       H  0.15467950  0.35344434  0.67316027     0.11100
H3586       H  0.15618829  0.35514023  0.61827630     0.09900
C3587       C  0.14020817  0.38272453  0.96047664    -0.03900
C3588       C  0.15093935  0.37297896  0.97694747    -0.09600
C3589       C  0.15019723  0.37238861  0.00814373    -0.17300
C3590       C  0.13876404  0.38151446  0.02351115     0.24900
C3591       C  0.12823297  0.39152140  0.00750137    -0.19000
C3592       C  0.12892899  0.39212553  0.97615871    -0.07900
C3593       C  0.13757897  0.38005828  0.05558779    -0.14300
C3594       C  0.13676604  0.37813376  0.08233462    -0.14000
C3595       C  0.13574216  0.37575919  0.11425564     0.24800
C3596       C  0.12198546  0.38071583  0.12968959    -0.19400
C3597       C  0.12122359  0.37919646  0.16081739    -0.07900
C3598       C  0.13421736  0.37262942  0.17707027    -0.04000
C3599       C  0.14781144  0.36719633  0.16126286    -0.09300
C3600       C  0.14857027  0.36880064  0.13004825    -0.16900
H3601       H  0.15977739  0.36554551  0.96575003     0.11200
H3602       H  0.15840128  0.36460040  0.02026636     0.10500
H3603       H  0.11932609  0.39865441  0.01919651     0.10400
H3604       H  0.12049915  0.39974377  0.96423867     0.10900
H3605       H  0.11194910  0.38603424  0.11772307     0.11000
H3606       H  0.11054955  0.38345761  0.17222328     0.11000
H3607       H  0.15806274  0.36222339  0.17307747     0.11100
H3608       H  0.15927646  0.36488633  0.11830347     0.09900
C3609       C  0.36603625  0.30627855  0.59763255    -0.03900
C3610       C  0.37959412  0.29629268  0.59439559    -0.09600
C3611       C  0.37783333  0.28008046  0.58701724    -0.17300
C3612       C  0.36251386  0.27356054  0.58260050     0.24900
C3613       C  0.34887625  0.28314861  0.58751820    -0.19000
C3614       C  0.35062063  0.29941704  0.59519918    -0.07900
C3615       C  0.36111280  0.25732607  0.57146108    -0.14300
C3616       C  0.36166456  0.24377273  0.56178329    -0.14000
C3617       C  0.36413294  0.22747901  0.55163559     0.24800
C3618       C  0.35114749  0.21790188  0.54264753    -0.19400
C3619       C  0.35353742  0.20159042  0.53611294    -0.07900
C3620       C  0.36893036  0.19465298  0.53885422    -0.04000
C3621       C  0.38201881  0.20460939  0.54618190    -0.09300
C3622       C  0.37962416  0.22087908  0.55248758    -0.16900
H3623       H  0.39160675  0.30124708  0.59598912     0.11200
H3624       H  0.38847799  0.27279366  0.58346933     0.10500
H3625       H  0.33694091  0.27824559  0.58423335     0.10400
H3626       H  0.33996959  0.30686581  0.59705169     0.10900
H3627       H  0.33909779  0.22286438  0.54185801     0.11000
H3628       H  0.34318670  0.19420704  0.53094179     0.11000
H3629       H  0.39400656  0.19963494  0.54853974     0.11100
H3630       H  0.38978708  0.22816155  0.55926155     0.09900
C3631       C  0.43415838  0.37102778  0.50577108    -0.03900
C3632       C  0.44190870  0.35594764  0.50521251    -0.09600
C3633       C  0.45830722  0.35475803  0.49859193    -0.17300
C3634       C  0.46727235  0.36859307  0.49246996     0.24900
C3635       C  0.45957456  0.38359025  0.49185284    -0.19000
C3636       C  0.44312488  0.38481542  0.49838055    -0.07900
C3637       C  0.48450208  0.36746816  0.48878739    -0.14300
C3638       C  0.49898550  0.36640466  0.48722919    -0.14000
C3639       C  0.51630068  0.36501400  0.48587186     0.24800
C3640       C  0.52612197  0.37739422  0.49668687    -0.19400
C3641       C  0.54290529  0.37631038  0.49414159    -0.07900
C3642       C  0.55010913  0.36280673  0.48062872    -0.04000
C3643       C  0.54010778  0.35020837  0.47077332    -0.09300
C3644       C  0.52337647  0.35132253  0.47335987    -0.16900
H3645       H  0.43540173  0.34506705  0.51068204     0.11200
H3646       H  0.46408953  0.34307778  0.49911153     0.10500
H3647       H  0.46638273  0.39439671  0.48717568     0.10400
H3648       H  0.43759228  0.39660677  0.49874177     0.10900
H3649       H  0.52079676  0.38802244  0.50659004     0.11000
H3650       H  0.55018003  0.38625243  0.50191043     0.11000
H3651       H  0.54517339  0.33960928  0.46034062     0.11100
H3652       H  0.51594498  0.34160382  0.46509440     0.09900
C3653       C  0.36961350  0.45246862  0.53588453    -0.03900
C3654       C  0.35955816  0.46346723  0.55094537    -0.09600
C3655       C  0.36135606  0.48004496  0.54674314    -0.17300
C3656       C  0.37320381  0.48596275  0.52742948     0.24900
C3657       C  0.38328865  0.47516572  0.51237196    -0.19000
C3658       C  0.38154381  0.45855708  0.51658628    -0.07900
C3659       C  0.37479196  0.50308012  0.52274002    -0.14300
C3660       C  0.37562842  0.51740924  0.51845289    -0.14000
C3661       C  0.37593946  0.53447511  0.51243808     0.24800
C3662       C  0.39044725  0.54301494  0.51324479    -0.19400
C3663       C  0.39073491  0.55942656  0.50609260    -0.07900
C3664       C  0.37649215  0.56752284  0.49790005    -0.04000
C3665       C  0.36193353  0.55886844  0.49778093    -0.09300
C3666       C  0.36168239  0.54250767  0.50498471    -0.16900
H3667       H  0.35029995  0.45928786  0.56610078     0.11200
H3668       H  0.35345994  0.48825056  0.55852505     0.10500
H3669       H  0.39248835  0.47958004  0.49730546     0.10400
H3670       H  0.38951138  0.45050243  0.50465708     0.10900
H3671       H  0.40157170  0.53694600  0.51900447     0.11000
H3672       H  0.40214977  0.56567446  0.50640465     0.11000
H3673       H  0.35071965  0.56467135  0.49171663     0.11100
H3674       H  0.35037030  0.53606559  0.50433467     0.09900
C3675       C  0.19965114  0.38628516  0.74122171    -0.03900
C3676       C  0.20469680  0.37393433  0.72178092    -0.09600
C3677       C  0.21904371  0.37533090  0.70560571    -0.17300
C3678       C  0.22860440  0.38907555  0.70849849     0.24900
C3679       C  0.22365700  0.40148890  0.72753087    -0.19000
C3680       C  0.20928983  0.40013779  0.74372510    -0.07900
C3681       C  0.24365038  0.39021712  0.69249127    -0.14300
C3682       C  0.25641586  0.39049215  0.67957239    -0.14000
C3683       C  0.27185868  0.38974027  0.66487054     0.24800
C3684       C  0.27627970  0.40130276  0.64357739    -0.19400
C3685       C  0.29121684  0.40026232  0.62915381    -0.07900
C3686       C  0.30191217  0.38758096  0.63577493    -0.04000
C3687       C  0.29732601  0.37606937  0.65727059    -0.09300
C3688       C  0.28245848  0.37717866  0.67170242    -0.16900
H3689       H  0.19759953  0.36312902  0.71911080     0.11200
H3690       H  0.22273147  0.36562388  0.69098077     0.10500
H3691       H  0.23095844  0.41217885  0.73001611     0.10400
H3692       H  0.20581105  0.40989654  0.75837346     0.10900
H3693       H  0.26817881  0.41108759  0.63806836     0.11000
H3694       H  0.29434510  0.40932991  0.61274707     0.11000
H3695       H  0.30526701  0.36622277  0.66313897     0.11100
H3696       H  0.27920470  0.36817640  0.68816759     0.09900
C3697       C  0.36897775  0.19325272  0.03574099    -0.03900
C3698       C  0.38221136  0.20302886  0.04309204    -0.09600
C3699       C  0.38001573  0.21928593  0.04957647    -0.17300
C3700       C  0.36459969  0.22603068  0.04876762     0.24900
C3701       C  0.35151143  0.21670126  0.03952375    -0.19000
C3702       C  0.35368748  0.20039575  0.03289812    -0.07900
C3703       C  0.36227008  0.24218421  0.05939378    -0.14300
C3704       C  0.36189082  0.25562489  0.06941416    -0.14000
C3705       C  0.36372316  0.27174580  0.08049722     0.24800
C3706       C  0.37908602  0.27851830  0.08107177    -0.19400
C3707       C  0.38106759  0.29465941  0.08846036    -0.07900
C3708       C  0.36767331  0.30433423  0.09534008    -0.04000
C3709       C  0.35235184  0.29719502  0.09666845    -0.09300
C3710       C  0.35038355  0.28095852  0.08913070    -0.16900
H3711       H  0.39414200  0.19792170  0.04546871     0.11200
H3712       H  0.39025093  0.22642319  0.05652525     0.10500
H3713       H  0.33953286  0.22183452  0.03872231     0.10400
H3714       H  0.34323809  0.19318093  0.02760173     0.10900
H3715       H  0.38949709  0.27148214  0.07459328     0.11000
H3716       H  0.39301395  0.29979569  0.08718862     0.11000
H3717       H  0.34179488  0.30438679  0.10146012     0.11100
H3718       H  0.33842825  0.27579950  0.08884175     0.09900
C3719       C  0.55013997  0.36361166  0.97553966    -0.03900
C3720       C  0.54357214  0.37540237  0.99457733    -0.09600
C3721       C  0.52688032  0.37689549  0.99786090    -0.17300
C3722       C  0.51651830  0.36666366  0.98216884     0.24900
C3723       C  0.52292508  0.35469586  0.96371773    -0.19000
C3724       C  0.53957906  0.35316552  0.96040438    -0.07900
C3725       C  0.49931738  0.36839646  0.98483907    -0.14300
C3726       C  0.48487659  0.36925379  0.98722625    -0.14000
C3727       C  0.46769170  0.36934566  0.99153325     0.24800
C3728       C  0.45845231  0.38286249  0.98397768    -0.19400
C3729       C  0.44193423  0.38318077  0.99025198    -0.07900
C3730       C  0.43445802  0.36994638  0.00414661    -0.04000
C3731       C  0.44381044  0.35623290  0.01067455    -0.09300
C3732       C  0.46026722  0.35597331  0.00447061    -0.16900
H3733       H  0.55129907  0.38365973  0.00654537     0.11200
H3734       H  0.52206064  0.38615049  0.01235825     0.10500
H3735       H  0.51503357  0.34664848  0.95158618     0.10400
H3736       H  0.54414745  0.34397426  0.94551388     0.10900
H3737       H  0.46407152  0.39328660  0.97389518     0.11000
H3738       H  0.43513751  0.39394055  0.98500561     0.11000
H3739       H  0.43854989  0.34584964  0.02152381     0.11100
H3740       H  0.46728173  0.34544733  0.01041503     0.09900
C3741       C  0.37719336  0.56534234  0.99844379    -0.03900
C3742       C  0.36337719  0.55575384  0.99472538    -0.09600
C3743       C  0.36361713  0.53946348  0.00242694    -0.17300
C3744       C  0.37762087  0.53246196  0.01400235     0.24900
C3745       C  0.39137920  0.54188980  0.01812238    -0.19000
C3746       C  0.39117502  0.55822171  0.01045495    -0.07900
C3747       C  0.37780080  0.51556235  0.02119309    -0.14300
C3748       C  0.37711071  0.50132890  0.02631225    -0.14000
C3749       C  0.37530102  0.48430687  0.03133334     0.24800
C3750       C  0.38712348  0.47354486  0.02152837    -0.19400
C3751       C  0.38494781  0.45697755  0.02513031    -0.07900
C3752       C  0.37090225  0.45092281  0.03869761    -0.04000
C3753       C  0.35917494  0.46187969  0.04876070    -0.09300
C3754       C  0.36135958  0.47842942  0.04503109    -0.16900
H3755       H  0.35240061  0.56077125  0.98552857     0.11200
H3756       H  0.35289544  0.53228907  0.99911511     0.10500
H3757       H  0.40230166  0.53659661  0.02702822     0.10400
H3758       H  0.40203672  0.56519295  0.01352512     0.10900
H3759       H  0.39796380  0.47794557  0.01087367     0.11000
H3760       H  0.39430549  0.44893628  0.01738234     0.11000
H3761       H  0.34825040  0.45767821  0.05936228     0.11100
H3762       H  0.35210048  0.48664302  0.05262754     0.09900
C3763       C  0.36552559  0.38484517  0.92619389    -0.03900
C3764       C  0.35262044  0.37842577  0.90959174    -0.09600
C3765       C  0.35370530  0.37672632  0.87855532    -0.17300
C3766       C  0.36766654  0.38142105  0.86351467     0.24900
C3767       C  0.38036100  0.38836721  0.87958655    -0.19000
C3768       C  0.37929553  0.39011976  0.91073829    -0.07900
C3769       C  0.36904091  0.37865793  0.83176173    -0.14300
C3770       C  0.36994248  0.37614563  0.80520428    -0.14000
C3771       C  0.37099561  0.37368663  0.77332640     0.24800
C3772       C  0.38453216  0.37907294  0.75774053    -0.19400
C3773       C  0.38511637  0.37792331  0.72656169    -0.07900
C3774       C  0.37212363  0.37136959  0.71040310    -0.04000
C3775       C  0.35882601  0.36537124  0.72637051    -0.09300
C3776       C  0.35826199  0.36657340  0.75763879    -0.16900
H3777       H  0.34179277  0.37431774  0.92066190     0.11200
H3778       H  0.34376793  0.37142408  0.86636838     0.10500
H3779       H  0.39121708  0.39210140  0.86813941     0.10400
H3780       H  0.38945863  0.39504875  0.92279075     0.10900
H3781       H  0.39448101  0.38454520  0.76962592     0.11000
H3782       H  0.39557953  0.38259951  0.71506769     0.11000
H3783       H  0.34860034  0.36032647  0.71467126     0.11100
H3784       H  0.34772106  0.36233636  0.76949239     0.09900
C3785       C  0.36474585  0.38328811  0.42600724    -0.03900
C3786       C  0.37894193  0.38711671  0.41043568    -0.09600
C3787       C  0.37981771  0.38501139  0.37934532    -0.17300
C3788       C  0.36650300  0.37916577  0.36346207     0.24900
C3789       C  0.35220870  0.37581464  0.37867208    -0.19000
C3790       C  0.35132468  0.37782901  0.40966132    -0.07900
C3791       C  0.36752480  0.37617826  0.33172114    -0.14300
C3792       C  0.36822290  0.37354453  0.30517149    -0.14000
C3793       C  0.36946893  0.37112876  0.27328283     0.24800
C3794       C  0.35792377  0.36215707  0.25764448    -0.19400
C3795       C  0.35871234  0.36089904  0.22632761    -0.07900
C3796       C  0.37105547  0.36866684  0.21034182    -0.04000
C3797       C  0.38292227  0.37707966  0.22655486    -0.09300
C3798       C  0.38209094  0.37832451  0.25765401    -0.16900
H3799       H  0.38951472  0.39120820  0.42236864     0.11200
H3800       H  0.39095836  0.38765847  0.36779403     0.10500
H3801       H  0.34181332  0.37134894  0.36664405     0.10400
H3802       H  0.34018883  0.37481482  0.42089775     0.10900
H3803       H  0.34811447  0.35646751  0.26955900     0.11000
H3804       H  0.34939209  0.35434630  0.21461933     0.11000
H3805       H  0.39268261  0.38313822  0.21516220     0.11100
H3806       H  0.39113451  0.38522594  0.26945948     0.09900
C3807       C  0.20104817  0.38709608  0.24593934    -0.03900
C3808       C  0.21198147  0.39959981  0.25197264    -0.09600
C3809       C  0.22669099  0.40050689  0.23666819    -0.17300
C3810       C  0.23067679  0.38900762  0.21498767     0.24900
C3811       C  0.21974331  0.37672838  0.20842736    -0.19000
C3812       C  0.20509151  0.37575257  0.22374624    -0.07900
C3813       C  0.24610702  0.38946589  0.20000213    -0.14300
C3814       C  0.25901876  0.38916500  0.18748830    -0.14000
C3815       C  0.27440151  0.38815089  0.17243308     0.24800
C3816       C  0.28364529  0.37410494  0.17455695    -0.19400
C3817       C  0.29838540  0.37292349  0.15954532    -0.07900
C3818       C  0.30418759  0.38581805  0.14212135    -0.04000
C3819       C  0.29484049  0.39992914  0.14027767    -0.09300
C3820       C  0.28007704  0.40106297  0.15528600    -0.16900
H3821       H  0.20928662  0.40854556  0.26882641     0.11200
H3822       H  0.23502301  0.41008749  0.24197684     0.10500
H3823       H  0.22261699  0.36777528  0.19166342     0.10400
H3824       H  0.19695407  0.36604379  0.21823850     0.10900
H3825       H  0.27942301  0.36401174  0.18772736     0.11000
H3826       H  0.30521756  0.36188169  0.16160631     0.11000
H3827       H  0.29887372  0.41008149  0.12709115     0.11100
H3828       H  0.27305525  0.41199982  0.15339484     0.09900
C3829       C  0.80874583  0.13282771  0.66421824    -0.03900
C3830       C  0.79866413  0.11965669  0.67043007    -0.09600
C3831       C  0.78231565  0.12196348  0.67623234    -0.17300
C3832       C  0.77573716  0.13745192  0.67599069     0.24900
C3833       C  0.78547465  0.15057446  0.66835919    -0.19000
C3834       C  0.80188435  0.14827463  0.66233235    -0.07900
C3835       C  0.75921034  0.13970781  0.68501823    -0.14300
C3836       C  0.74540659  0.13998951  0.69348743    -0.14000
C3837       C  0.72892493  0.13821406  0.70312210     0.24800
C3838       C  0.71953591  0.15156589  0.71108478    -0.19400
C3839       C  0.70319964  0.14961370  0.71824670    -0.07900
C3840       C  0.69608813  0.13427897  0.71729368    -0.04000
C3841       C  0.70587191  0.12090757  0.71063631    -0.09300
C3842       C  0.72210059  0.12287571  0.70359996    -0.16900
H3843       H  0.80355375  0.10760518  0.67197878     0.11200
H3844       H  0.77491295  0.11169581  0.68192670     0.10500
H3845       H  0.78051810  0.16262345  0.66803453     0.10400
H3846       H  0.80935388  0.15866209  0.65791723     0.10900
H3847       H  0.72470370  0.16350816  0.71091118     0.11000
H3848       H  0.69597956  0.16015216  0.72297770     0.11000
H3849       H  0.70083259  0.10891935  0.70975183     0.11100
H3850       H  0.72922913  0.11243530  0.69768596     0.09900
C3851       C  0.87797351  0.06531575  0.75210439    -0.03900
C3852       C  0.89241986  0.05663672  0.75529477    -0.09600
C3853       C  0.89210302  0.04021152  0.76215175    -0.17300
C3854       C  0.87737934  0.03234671  0.76615456     0.24900
C3855       C  0.86300168  0.04102965  0.76419191    -0.19000
C3856       C  0.86327695  0.05738120  0.75716634    -0.07900
C3857       C  0.87686397  0.01524636  0.77078225    -0.14300
C3858       C  0.87569496  0.00089543  0.77369082    -0.14000
C3859       C  0.87358589  0.98383254  0.77692604     0.24800
C3860       C  0.85948019  0.97783182  0.78978048    -0.19400
C3861       C  0.85743151  0.96128145  0.79341385    -0.07900
C3862       C  0.86948144  0.95048097  0.78412003    -0.04000
C3863       C  0.88353480  0.95664521  0.77080012    -0.09300
C3864       C  0.88556468  0.97321552  0.76727290    -0.16900
H3865       H  0.90390799  0.06237815  0.75135644     0.11200
H3866       H  0.90330374  0.03357578  0.76360337     0.10500
H3867       H  0.85154328  0.03507099  0.76733675     0.10400
H3868       H  0.85194894  0.06373986  0.75506463     0.10900
H3869       H  0.85010394  0.98595989  0.79720168     0.11000
H3870       H  0.84646056  0.95697250  0.80370050     0.11000
H3871       H  0.89308699  0.94870564  0.76351836     0.11100
H3872       H  0.89651736  0.97774377  0.75721940     0.09900
C3873       C  0.95404221  0.13594239  0.72676156    -0.03900
C3874       C  0.96098557  0.12302532  0.74262951    -0.09600
C3875       C  0.97772331  0.12133385  0.74426231    -0.17300
C3876       C  0.98775581  0.13250674  0.73012186     0.24900
C3877       C  0.98099017  0.14546851  0.71457527    -0.19000
C3878       C  0.96428505  0.14719451  0.71290161    -0.07900
C3879       C  0.00498743  0.13087764  0.73199159    -0.14300
C3880       C  0.01942121  0.12997231  0.73437105    -0.14000
C3881       C  0.03657571  0.12947513  0.73890858     0.24800
C3882       C  0.04476394  0.14350805  0.74684437    -0.19400
C3883       C  0.06114178  0.14293129  0.75379151    -0.07900
C3884       C  0.06960367  0.12826234  0.75299918    -0.04000
C3885       C  0.06140983  0.11430372  0.74379760    -0.09300
C3886       C  0.04498393  0.11491927  0.73688974    -0.16900
H3887       H  0.95350966  0.11404321  0.75329163     0.11200
H3888       H  0.98283473  0.11125946  0.75640751     0.10500
H3889       H  0.98863076  0.15420881  0.70358567     0.10400
H3890       H  0.95941504  0.15719778  0.70024593     0.10900
H3891       H  0.03839257  0.15484765  0.74842706     0.11000
H3892       H  0.06704620  0.15391651  0.76066422     0.11000
H3893       H  0.06752033  0.10280605  0.74299180     0.11100
H3894       H  0.03876207  0.10397682  0.73074428     0.09900
C3895       C  0.80954924  0.13848447  0.16996973    -0.03900
C3896       C  0.80356975  0.15432379  0.17055921    -0.09600
C3897       C  0.78724781  0.15724257  0.17632325    -0.17300
C3898       C  0.77674640  0.14435539  0.18122200     0.24900
C3899       C  0.78248525  0.12857765  0.17926348    -0.19000
C3900       C  0.79875612  0.12564576  0.17382041    -0.07900
C3901       C  0.76019748  0.14697899  0.18941555    -0.14300
C3902       C  0.74619683  0.14681916  0.19648241    -0.14000
C3903       C  0.72954719  0.14380113  0.20330992     0.24800
C3904       C  0.72300934  0.12890098  0.19570789    -0.19400
C3905       C  0.70674842  0.12582305  0.20053949    -0.07900
C3906       C  0.69665233  0.13762903  0.21312772    -0.04000
C3907       C  0.70341746  0.15244754  0.22163553    -0.09300
C3908       C  0.71980289  0.15551032  0.21672788    -0.16900
H3909       H  0.81163111  0.16444648  0.16802602     0.11200
H3910       H  0.78292996  0.16951003  0.17774334     0.10500
H3911       H  0.77444915  0.11851196  0.18283554     0.10400
H3912       H  0.80298243  0.11332422  0.17346265     0.10900
H3913       H  0.73044514  0.11971688  0.18547344     0.11000
H3914       H  0.70203356  0.11426503  0.19372784     0.11000
H3915       H  0.69598573  0.16181116  0.23123754     0.11100
H3916       H  0.72477553  0.16707576  0.22283769     0.09900
C3917       C  0.86867526  0.95064426  0.28534452    -0.03900
C3918       C  0.86124168  0.96185703  0.30446246    -0.09600
C3919       C  0.86326523  0.97837233  0.29985417    -0.17300
C3920       C  0.87263675  0.98394185  0.27598484     0.24900
C3921       C  0.87978836  0.97290740  0.25644826    -0.19000
C3922       C  0.87787334  0.95638021  0.26111764    -0.07900
C3923       C  0.87478760  0.00096490  0.27142029    -0.14300
C3924       C  0.87606323  0.01523787  0.26715845    -0.14000
C3925       C  0.87650527  0.03223891  0.26095504     0.24800
C3926       C  0.89055709  0.04116573  0.26565213    -0.19400
C3927       C  0.89090693  0.05758866  0.25864519    -0.07900
C3928       C  0.87718170  0.06527787  0.24681289    -0.04000
C3929       C  0.86308059  0.05618475  0.24259953    -0.09300
C3930       C  0.86277540  0.03982786  0.24959587    -0.16900
H3931       H  0.85413094  0.95787624  0.32336695     0.11200
H3932       H  0.85760188  0.98679655  0.31503947     0.10500
H3933       H  0.88695213  0.97707255  0.23773475     0.10400
H3934       H  0.88366118  0.94809926  0.24584341     0.10900
H3935       H  0.90127655  0.03541039  0.27441973     0.11000
H3936       H  0.90197638  0.06417866  0.26206658     0.11000
H3937       H  0.85229537  0.06163102  0.23346415     0.11100
H3938       H  0.85184099  0.03304816  0.24583992     0.09900
C3939       C  0.95550989  0.13524226  0.22824541    -0.03900
C3940       C  0.96265420  0.12078476  0.23793268    -0.09600
C3941       C  0.97939751  0.11949214  0.24047253    -0.17300
C3942       C  0.98922661  0.13264534  0.23362646     0.24900
C3943       C  0.98219677  0.14725556  0.22509456    -0.19000
C3944       C  0.96547526  0.14854717  0.22232590    -0.07900
C3945       C  0.00651167  0.13105819  0.23458388    -0.14300
C3946       C  0.02099714  0.12992382  0.23538890    -0.14000
C3947       C  0.03829078  0.12902843  0.23779459     0.24800
C3948       C  0.04600118  0.11412469  0.24075624    -0.19400
C3949       C  0.06256165  0.11339889  0.24646162    -0.07900
C3950       C  0.07158644  0.12760514  0.24964818    -0.04000
C3951       C  0.06386800  0.14248394  0.24509043    -0.09300
C3952       C  0.04735474  0.14317038  0.23914057    -0.16900
H3953       H  0.95536018  0.11029228  0.24248814     0.11200
H3954       H  0.98468854  0.10813301  0.24718877     0.10500
H3955       H  0.98965972  0.15755817  0.21994026     0.10400
H3956       H  0.96037218  0.15987261  0.21496567     0.10900
H3957       H  0.03912638  0.10308709  0.23972248     0.11000
H3958       H  0.06810203  0.10175834  0.25001607     0.11000
H3959       H  0.07048020  0.15362859  0.24722868     0.11100
H3960       H  0.04155065  0.15477202  0.23672034     0.09900
C3961       C  0.87574747  0.13142691  0.04801128    -0.03900
C3962       C  0.88381787  0.11945206  0.03149615    -0.09600
C3963       C  0.88520651  0.12061351  0.00045945    -0.17300
C3964       C  0.87855688  0.13372282  0.98528138     0.24900
C3965       C  0.87009025  0.14550278  0.00126396    -0.19000
C3966       C  0.86867347  0.14437361  0.03248451    -0.07900
C3967       C  0.88086927  0.13517087  0.95343850    -0.14300
C3968       C  0.88302813  0.13610177  0.92678538    -0.14000
C3969       C  0.88485056  0.13725369  0.89478459     0.24800
C3970       C  0.87496637  0.14774403  0.87862647    -0.19400
C3971       C  0.87576091  0.14821336  0.84741573    -0.07900
C3972       C  0.88644269  0.13811183  0.83174471    -0.04000
C3973       C  0.89674466  0.12795199  0.84825814    -0.09300
C3974       C  0.89594060  0.12753688  0.87959896    -0.16900
H3975       H  0.88940901  0.10929413  0.04259931     0.11200
H3976       H  0.89173693  0.11140697  0.98835178     0.10500
H3977       H  0.86486550  0.15570627  0.98967847     0.10400
H3978       H  0.86249016  0.15384268  0.04448627     0.10900
H3979       H  0.86637486  0.15534270  0.89013554     0.11000
H3980       H  0.86766739  0.15621357  0.83556259     0.11000
H3981       H  0.90516030  0.12007700  0.83697874     0.11100
H3982       H  0.90371086  0.11940295  0.89191303     0.09900
C3983       C  0.88947119  0.13342437  0.33189235    -0.03900
C3984       C  0.90081458  0.12382632  0.34712340    -0.09600
C3985       C  0.89973946  0.12171669  0.37821289    -0.17300
C3986       C  0.88726664  0.12907130  0.39428096     0.24900
C3987       C  0.87614850  0.13881454  0.37935747    -0.19000
C3988       C  0.87725908  0.14103650  0.34848968    -0.07900
C3989       C  0.88562546  0.12671983  0.42605176    -0.14300
C3990       C  0.88359028  0.12557176  0.45268927    -0.14000
C3991       C  0.88140532  0.12486426  0.48461997     0.24800
C3992       C  0.86985412  0.13454864  0.49867641    -0.19400
C3993       C  0.86850057  0.13457291  0.52995655    -0.07900
C3994       C  0.87869846  0.12486405  0.54750274    -0.04000
C3995       C  0.89000010  0.11490540  0.53294791    -0.09300
C3996       C  0.89133933  0.11494141  0.50182382    -0.16900
H3997       H  0.91035541  0.11781253  0.33500120     0.11200
H3998       H  0.90847648  0.11420630  0.38961762     0.10500
H3999       H  0.86647135  0.14457368  0.39156448     0.10400
H4000       H  0.86822797  0.14837605  0.33752796     0.10900
H4001       H  0.86210113  0.14229680  0.48549715     0.11000
H4002       H  0.85971122  0.14238267  0.54037083     0.11000
H4003       H  0.89810270  0.10727339  0.54560153     0.11100
H4004       H  0.90033128  0.10742364  0.49121488     0.09900
C4005       C  0.80966187  0.36325893  0.96368422    -0.03900
C4006       C  0.79965473  0.37655579  0.95772585    -0.09600
C4007       C  0.78324498  0.37448089  0.95263750    -0.17300
C4008       C  0.77652497  0.35910351  0.95329778     0.24900
C4009       C  0.78622561  0.34580134  0.96019062    -0.19000
C4010       C  0.80273266  0.34786309  0.96545703    -0.07900
C4011       C  0.75980986  0.35721328  0.94563850    -0.14300
C4012       C  0.74582924  0.35742490  0.93840014    -0.14000
C4013       C  0.72919893  0.35963717  0.93032458     0.24800
C4014       C  0.71945055  0.34650116  0.92295087    -0.19400
C4015       C  0.70301376  0.34878089  0.91725995    -0.07900
C4016       C  0.69618177  0.36422761  0.91914673    -0.04000
C4017       C  0.70625056  0.37739834  0.92538061    -0.09300
C4018       C  0.72261507  0.37510721  0.93088190    -0.16900
H4019       H  0.80458499  0.38857296  0.95622187     0.11200
H4020       H  0.77585672  0.38486368  0.94742258     0.10500
H4021       H  0.78112636  0.33383170  0.96075306     0.10400
H4022       H  0.81015233  0.33738407  0.96965229     0.10900
H4023       H  0.72444980  0.33447298  0.92239874     0.11000
H4024       H  0.69554091  0.33840344  0.91282448     0.11000
H4025       H  0.70137668  0.38945313  0.92692244     0.11100
H4026       H  0.73005303  0.38537431  0.93639011     0.09900
C4027       C  0.86956206  0.54850452  0.85103060    -0.03900
C4028       C  0.85846365  0.53731190  0.83954746    -0.09600
C4029       C  0.86069473  0.52080450  0.84422072    -0.17300
C4030       C  0.87406436  0.51521036  0.86029197     0.24900
C4031       C  0.88513283  0.52622456  0.87186508    -0.19000
C4032       C  0.88291951  0.54272402  0.86729523    -0.07900
C4033       C  0.87640223  0.49819072  0.86493960    -0.14300
C4034       C  0.87790660  0.48390097  0.86894944    -0.14000
C4035       C  0.87857112  0.46678707  0.87416209     0.24800
C4036       C  0.86424371  0.45806412  0.87593729    -0.19400
C4037       C  0.86457350  0.44162063  0.88226170    -0.07900
C4038       C  0.87928387  0.43355758  0.88685377    -0.04000
C4039       C  0.89369624  0.44232454  0.88429078    -0.09300
C4040       C  0.89332463  0.45886040  0.87809799    -0.16900
H4041       H  0.84806377  0.54128794  0.82690861     0.11200
H4042       H  0.85201271  0.51240024  0.83520537     0.10500
H4043       H  0.89551530  0.52206040  0.88436909     0.10400
H4044       H  0.89175399  0.55093104  0.87636939     0.10900
H4045       H  0.85276141  0.46403209  0.87285842     0.11000
H4046       H  0.85325459  0.43525780  0.88393121     0.11000
H4047       H  0.90520748  0.43651462  0.88788950     0.11100
H4048       H  0.90450998  0.46548684  0.87679436     0.09900
C4049       C  0.95574047  0.36263137  0.90998861    -0.03900
C4050       C  0.96609199  0.35236071  0.92619437    -0.09600
C4051       C  0.98277164  0.35425579  0.92460188    -0.17300
C4052       C  0.98939436  0.36638013  0.90675265     0.24900
C4053       C  0.97925192  0.37643313  0.89005317    -0.19000
C4054       C  0.96254090  0.37459264  0.89164828    -0.07900
C4055       C  0.00659995  0.36832733  0.90530728    -0.14300
C4056       C  0.02104527  0.36932148  0.90338552    -0.14000
C4057       C  0.03823927  0.36945269  0.89927034     0.24800
C4058       C  0.04701441  0.38372472  0.90207321    -0.19400
C4059       C  0.06347681  0.38392979  0.89538152    -0.07900
C4060       C  0.07133985  0.36985486  0.88557348    -0.04000
C4061       C  0.06251680  0.35545608  0.88417516    -0.09300
C4062       C  0.04611058  0.35528676  0.89091441    -0.16900
H4063       H  0.96132514  0.34308282  0.94070855     0.11200
H4064       H  0.99049810  0.34635020  0.93751946     0.10500
H4065       H  0.98425399  0.38580180  0.87601430     0.10400
H4066       H  0.95496262  0.38273129  0.87896724     0.10900
H4067       H  0.04105896  0.39477050  0.90859482     0.11000
H4068       H  0.06986518  0.39523845  0.89673349     0.11000
H4069       H  0.06814192  0.34439881  0.87683351     0.11100
H4070       H  0.03945406  0.34416264  0.88875899     0.09900
C4071       C  0.89152156  0.19767647  0.11750402    -0.03900
C4072       C  0.87851611  0.20325465  0.10004484    -0.09600
C4073       C  0.87940257  0.21797494  0.08498378    -0.17300
C4074       C  0.89327573  0.22740551  0.08705187     0.24900
C4075       C  0.90629271  0.22200540  0.10431542    -0.19000
C4076       C  0.90545291  0.20724029  0.11940177    -0.07900
C4077       C  0.89397783  0.24270188  0.07179224    -0.14300
C4078       C  0.89388494  0.25560743  0.05933638    -0.14000
C4079       C  0.89285111  0.27116211  0.04507990     0.24800
C4080       C  0.90648217  0.27825958  0.03232182    -0.19400
C4081       C  0.90534617  0.29338073  0.01864800    -0.07900
C4082       C  0.89052769  0.30164867  0.01751789    -0.04000
C4083       C  0.87692747  0.29440854  0.03053000    -0.09300
C4084       C  0.87810062  0.27929292  0.04415015    -0.16900
H4085       H  0.86760441  0.19625519  0.09797305     0.11200
H4086       H  0.86922584  0.22201994  0.07177198     0.10500
H4087       H  0.91707884  0.22922591  0.10618512     0.10400
H4088       H  0.91566755  0.20337547  0.13266301     0.10900
H4089       H  0.91797936  0.27210981  0.03290179     0.11000
H4090       H  0.91607514  0.29854751  0.00886220     0.11000
H4091       H  0.86533474  0.30035889  0.03004143     0.11100
H4092       H  0.86746679  0.27392808  0.05395305     0.09900
C4093       C  0.80805004  0.36122119  0.46545298    -0.03900
C4094       C  0.80148793  0.34577775  0.46945620    -0.09600
C4095       C  0.78500773  0.34311454  0.46479856    -0.17300
C4096       C  0.77493426  0.35587261  0.45635231     0.24900
C4097       C  0.78129087  0.37134220  0.45345595    -0.19000
C4098       C  0.79768208  0.37400648  0.45790965    -0.07900
C4099       C  0.75820157  0.35330790  0.44935794    -0.14300
C4100       C  0.74420403  0.35322582  0.44213633    -0.14000
C4101       C  0.72770547  0.35568529  0.43325623     0.24800
C4102       C  0.71772943  0.34275170  0.42561662    -0.19400
C4103       C  0.70151141  0.34546389  0.41841131    -0.07900
C4104       C  0.69512779  0.36114142  0.41904281    -0.04000
C4105       C  0.70545870  0.37406071  0.42556226    -0.09300
C4106       C  0.72157873  0.37133827  0.43261541    -0.16900
H4107       H  0.80917288  0.33566959  0.47495661     0.11200
H4108       H  0.78021442  0.33107703  0.46708680     0.10500
H4109       H  0.77362413  0.38131851  0.44701100     0.10400
H4110       H  0.80230793  0.38604970  0.45470030     0.10900
H4111       H  0.72237097  0.33057862  0.42591094     0.11000
H4112       H  0.69382006  0.33526649  0.41381690     0.11000
H4113       H  0.70094513  0.38627790  0.42620321     0.11100
H4114       H  0.72919499  0.38145276  0.43825529     0.09900
C4115       C  0.86921246  0.54852054  0.35235350    -0.03900
C4116       C  0.85862553  0.53752144  0.33875714    -0.09600
C4117       C  0.86057418  0.52094425  0.34296649    -0.17300
C4118       C  0.87311689  0.51501138  0.36080624     0.24900
C4119       C  0.88371525  0.52582217  0.37450733    -0.19000
C4120       C  0.88180166  0.54242860  0.37032278    -0.07900
C4121       C  0.87488470  0.49786110  0.36527971    -0.14300
C4122       C  0.87571226  0.48347621  0.36913507    -0.14000
C4123       C  0.87593202  0.46632074  0.37453948     0.24800
C4124       C  0.89030425  0.45754953  0.37251489    -0.19400
C4125       C  0.89054491  0.44106386  0.37918079    -0.07900
C4126       C  0.87639333  0.43310826  0.38808829    -0.04000
C4127       C  0.86194519  0.44199164  0.38937408    -0.09300
C4128       C  0.86173794  0.45841996  0.38264939    -0.16900
H4129       H  0.84884522  0.54170069  0.32471482     0.11200
H4130       H  0.85226356  0.51273686  0.33227167     0.10500
H4131       H  0.89346040  0.52142582  0.38843547     0.10400
H4132       H  0.89022089  0.55047289  0.38111738     0.10900
H4133       H  0.90138032  0.46349890  0.36622490     0.11000
H4134       H  0.90187075  0.43464951  0.37800212     0.11000
H4135       H  0.85078922  0.43631731  0.39603135     0.11100
H4136       H  0.85052082  0.46501788  0.38423227     0.09900
C4137       C  0.95460081  0.36368044  0.41023150    -0.03900
C4138       C  0.96113464  0.37566150  0.39151348    -0.09600
C4139       C  0.97785109  0.37766488  0.38925980    -0.17300
C4140       C  0.98830368  0.36775509  0.40565932     0.24900
C4141       C  0.98193503  0.35557146  0.42371232    -0.19000
C4142       C  0.96527094  0.35351989  0.42595930    -0.07900
C4143       C  0.00554978  0.36987618  0.40385483    -0.14300
C4144       C  0.02004161  0.37079584  0.40197199    -0.14000
C4145       C  0.03730090  0.37069527  0.39789211     0.24800
C4146       C  0.04483848  0.35678219  0.38726189    -0.19400
C4147       C  0.06126680  0.35683643  0.38054205    -0.07900
C4148       C  0.07050277  0.37086218  0.38428995    -0.04000
C4149       C  0.06297966  0.38461974  0.39632561    -0.09300
C4150       C  0.04648849  0.38453395  0.40300067    -0.16900
H4151       H  0.95334378  0.38369547  0.37905042     0.11200
H4152       H  0.98260853  0.38706013  0.37498505     0.10500
H4153       H  0.98986137  0.34773365  0.43634772     0.10400
H4154       H  0.96076271  0.34417734  0.44060866     0.10900
H4155       H  0.03790235  0.34597479  0.38332729     0.11000
H4156       H  0.06659683  0.34601293  0.37144902     0.11000
H4157       H  0.06967672  0.39563610  0.39954429     0.11100
H4158       H  0.04083629  0.39538178  0.41133192     0.09900
C4159       C  0.88893894  0.36131007  0.80173307    -0.03900
C4160       C  0.88121580  0.34894895  0.78567627    -0.09600
C4161       C  0.87963885  0.34982741  0.75458489    -0.17300
C4162       C  0.88577735  0.36301907  0.73895703     0.24900
C4163       C  0.89417876  0.37500370  0.75444416    -0.19000
C4164       C  0.89579899  0.37414830  0.78565111    -0.07900
C4165       C  0.88272731  0.36455738  0.70731784    -0.14300
C4166       C  0.87976715  0.36584978  0.68096859    -0.14000
C4167       C  0.87673581  0.36754257  0.64935901     0.24800
C4168       C  0.88078750  0.38186242  0.63476435    -0.19400
C4169       C  0.87935210  0.38307578  0.60365995    -0.07900
C4170       C  0.87374478  0.36997513  0.58672587    -0.04000
C4171       C  0.86894524  0.35589369  0.60174670    -0.09300
C4172       C  0.87051399  0.35466796  0.63286691    -0.16900
H4173       H  0.87592566  0.33879399  0.79720724     0.11200
H4174       H  0.87321922  0.34042508  0.74283487     0.10500
H4175       H  0.89906735  0.38523738  0.74251862     0.10400
H4176       H  0.90185469  0.38383096  0.79723948     0.10900
H4177       H  0.88553426  0.39192758  0.64732641     0.11000
H4178       H  0.88307577  0.39410154  0.59278333     0.11000
H4179       H  0.86470248  0.34555698  0.58934127     0.11100
H4180       H  0.86732174  0.34352375  0.64393383     0.09900
C4181       C  0.87686341  0.36890791  0.08638768    -0.03900
C4182       C  0.86668145  0.35828877  0.10201365    -0.09600
C4183       C  0.86741112  0.35722873  0.13334740    -0.17300
C4184       C  0.87831533  0.36674530  0.14941304     0.24900
C4185       C  0.88820824  0.37753606  0.13411169    -0.19000
C4186       C  0.88750050  0.37863397  0.10294837    -0.07900
C4187       C  0.87987024  0.36523338  0.18146196    -0.14300
C4188       C  0.88194161  0.36427555  0.20817237    -0.14000
C4189       C  0.88435729  0.36306914  0.24008110     0.24800
C4190       C  0.89187577  0.37550794  0.25590578    -0.19400
C4191       C  0.89334778  0.37464243  0.28713498    -0.07900
C4192       C  0.88724627  0.36132457  0.30293431    -0.04000
C4193       C  0.88018270  0.34867663  0.28662790    -0.09300
C4194       C  0.87876822  0.34955857  0.25549797    -0.16900
H4195       H  0.85838493  0.35060037  0.09004099     0.11200
H4196       H  0.85967077  0.34882042  0.14496783     0.10500
H4197       H  0.89668687  0.38495678  0.14626427     0.10400
H4198       H  0.89555586  0.38692613  0.09182510     0.10900
H4199       H  0.89630679  0.38601562  0.24418633     0.11000
H4200       H  0.89879743  0.38460630  0.29894119     0.11000
H4201       H  0.87541005  0.33820678  0.29796535     0.11100
H4202       H  0.87301242  0.33982273  0.24350780     0.09900
C4203       C  0.88879246  0.30153448  0.52027142    -0.03900
C4204       C  0.90232739  0.29142073  0.51793117    -0.09600
C4205       C  0.90252839  0.27634751  0.53202665    -0.17300
C4206       C  0.88925108  0.27114628  0.54872919     0.24900
C4207       C  0.87586631  0.28124553  0.55167703    -0.19000
C4208       C  0.87562046  0.29629005  0.53760441    -0.07900
C4209       C  0.88921314  0.25535120  0.56232810    -0.14300
C4210       C  0.88906687  0.24208425  0.57348143    -0.14000
C4211       C  0.88889538  0.22626128  0.58697442     0.24800
C4212       C  0.87537991  0.21635529  0.58404176    -0.19400
C4213       C  0.87506620  0.20119079  0.59773747    -0.07900
C4214       C  0.88829045  0.19565759  0.61467201    -0.04000
C4215       C  0.90191483  0.20563490  0.61710708    -0.09300
C4216       C  0.90218962  0.22079327  0.60339063    -0.16900
H4217       H  0.91266216  0.29502639  0.50482015     0.11200
H4218       H  0.91298136  0.26866764  0.52960170     0.10500
H4219       H  0.86552442  0.27742071  0.56458693     0.10400
H4220       H  0.86500466  0.30372913  0.54007711     0.10900
H4221       H  0.86501268  0.22040292  0.57136385     0.11000
H4222       H  0.86438071  0.19388399  0.59529542     0.11000
H4223       H  0.91231867  0.20182646  0.62990649     0.11100
H4224       H  0.91274000  0.22830966  0.60581180     0.09900
loop_ 
_geom_bond_atom_site_label_1 
_geom_bond_atom_site_label_2 
_geom_bond_distance 
_geom_bond_site_symmetry_2 
_ccdc_geom_bond_type 
Zr1           O2   2.442       .  S
Zr1           O3   2.450       .  S
Zr1           O4   2.461       .  S
Zr1           O7   2.460       .  S
Zr1           O9   2.389       .  S
Zr1          O10   2.388       .  S
Zr1          O11   2.419       .  S
Zr1          O12   2.400       .  S
O2           H58   0.990       .  S
O2           H66   0.990       .  S
O3           C23   1.286       .  A
O4           C25   1.288       .  A
O5          Zr15   2.417       .  S
O5           C24   1.283       .  A
O6          Zr14   2.432       .  S
O6           C25   1.285       .  A
O7           C24   1.290       .  A
O8          Zr16   2.410       .  S
O8           C23   1.280       .  A
O9          Zr14   2.400       .  S
O9          Zr16   2.379       .  S
O10         Zr15   2.392       .  S
O10         Zr16   2.385       .  S
O10          H45   0.966       .  S
O11         Zr14   2.411       .  S
O11         Zr31   2.393       .  S
O11          H48   0.966       .  S
O12         Zr15   2.385       .  S
O12         Zr31   2.385       .  S
Zr13         O38   2.442       .  S
Zr13         O32   2.441       .  S
Zr13         O40   2.459       .  S
Zr13         O28   2.433       .  S
Zr13         O19   2.392       .  S
Zr13         O20   2.415       .  S
Zr13         O21   2.383       .  S
Zr13         O22   2.381       .  S
Zr14         O33   2.438       .  S
Zr14         O26   2.435       .  S
Zr14         O27   2.449       .  S
Zr14         O20   2.399       .  S
Zr14         O21   2.396       .  S
Zr15         O17   2.435       .  S
Zr15         O39   2.437       .  S
Zr15         O41   2.412       .  S
Zr15         O19   2.386       .  S
Zr15         O22   2.391       .  S
Zr16         O42   2.435       .  S
Zr16         O43   2.439       .  S
Zr16         O18   2.438       .  S
Zr16         O19   2.387       .  S
Zr16         O20   2.393       .  S
O17          H54   0.990       .  S
O18          H49   0.990       .  S
O18          H63   0.990       .  S
O20          H46   0.964       .  S
O21         Zr31   2.379       .  S
O22         Zr31   2.384       .  S
O22          H47   0.968       .  S
C23        C4192   1.486       .  S
C24        C4126   1.489       .  S
C25        C4137   1.492       .  S
O26          H62   0.990       .  S
O27          C29   1.288       .  A
O28          C29   1.283       .  A
C29        C4203   1.490       .  S
O30         Zr31   2.439       .  S
O30          H59   0.990       .  S
Zr31         O34   2.437       .  S
Zr31         O35   2.440       .  S
Zr31         O36   2.410       .  S
O32          C37   1.284       .  A
O33          H50   0.990       .  S
O33          H65   0.990       .  S
O34          H51   0.990       .  S
O35          H55   0.990       .  S
O35          H64   0.990       .  S
O36          C37   1.280       .  A
C37        C4170   1.481       .  S
O38          H57   0.991       .  S
O38          H61   0.990       .  S
O39          H53   0.990       .  S
O39          H60   0.990       .  S
O40          C44   1.289       .  A
O41          C44   1.281       .  A
O42          H52   0.990       .  S
O43          H56   0.990       .  S
C44        C4093   1.483       .  S
Zr67         O68   2.442       .  S
Zr67         O69   2.455       .  S
Zr67         O70   2.454       .  S
Zr67         O73   2.454       .  S
Zr67         O75   2.385       .  S
Zr67         O76   2.384       .  S
Zr67         O77   2.416       .  S
Zr67         O78   2.402       .  S
O68         H124   0.990       .  S
O68         H132   0.990       .  S
O69          C89   1.287       .  A
O70          C91   1.287       .  A
O71         Zr81   2.420       .  S
O71          C90   1.283       .  A
O72         Zr80   2.415       .  S
O72          C91   1.281       .  A
O73          C90   1.288       .  A
O74         Zr82   2.408       .  S
O74          C89   1.280       .  A
O75         Zr80   2.398       .  S
O75         Zr82   2.380       .  S
O76         Zr81   2.389       .  S
O76         Zr82   2.383       .  S
O76         H111   0.966       .  S
O77         Zr80   2.403       .  S
O77         Zr97   2.393       .  S
O77         H114   0.966       .  S
O78         Zr81   2.380       .  S
O78         Zr97   2.387       .  S
Zr79        O104   2.441   1_556  S
Zr79         O98   2.448   1_556  S
Zr79        O106   2.460       .  S
Zr79         O94   2.452   1_556  S
Zr79         O85   2.396       .  S
Zr79         O86   2.414       .  S
Zr79         O87   2.380       .  S
Zr79         O88   2.392       .  S
Zr80         O99   2.437       .  S
Zr80         O92   2.434       .  S
Zr80         O93   2.423       .  S
Zr80         O86   2.396       .  S
Zr80         O87   2.389       .  S
Zr81         O83   2.435       .  S
Zr81        O105   2.438       .  S
Zr81        O107   2.408       .  S
Zr81         O85   2.386       .  S
Zr81         O88   2.397       .  S
Zr82        O108   2.436       .  S
Zr82        O109   2.436       .  S
Zr82         O84   2.436       .  S
Zr82         O85   2.383       .  S
Zr82         O86   2.392       .  S
O83         H120   0.990       .  S
O84         H115   0.990       .  S
O84         H129   0.990       .  S
O86         H112   0.965       .  S
O87         Zr97   2.376       .  S
O88         Zr97   2.383       .  S
O88         H113   0.966       .  S
C89        C4159   1.486       .  S
C90        C4038   1.485       .  S
C91        C4049   1.484       .  S
O92         H128   0.990       .  S
O93          C95   1.283   1_556  A
O94          C95   1.288       .  A
C95        C4082   1.487       .  S
O96         Zr97   2.435       .  S
O96         H125   0.990       .  S
Zr97        O100   2.435   1_556  S
Zr97        O101   2.438   1_556  S
Zr97        O102   2.412   1_556  S
O98         C103   1.286       .  A
O99         H116   0.990       .  S
O99         H131   0.990       .  S
O100        H117   0.990       .  S
O101        H121   0.990       .  S
O101        H130   0.990   1_554  S
O102        C103   1.280       .  A
C103       C4181   1.488       .  S
O104        H123   0.991       .  S
O104        H127   0.990       .  S
O105        H119   0.990       .  S
O105        H126   0.990       .  S
O106        C110   1.289       .  A
O107        C110   1.281       .  A
O108        H118   0.990       .  S
O109        H122   0.990       .  S
C110       C4005   1.481       .  S
Zr133       O134   2.441       .  S
Zr133       O135   2.438       .  S
Zr133       O136   2.452       .  S
Zr133       O139   2.443       .  S
Zr133       O141   2.386       .  S
Zr133       O142   2.387       .  S
Zr133       O143   2.405       .  S
Zr133       O144   2.399       .  S
O134        H190   0.990       .  S
O134        H198   0.990       .  S
O135        C155   1.285       .  A
O136        C157   1.287       .  A
O137       Zr147   2.421       .  S
O137        C156   1.283       .  A
O138       Zr146   2.421       .  S
O138        C157   1.283       .  A
O139        C156   1.287       .  A
O140       Zr148   2.417       .  S
O140        C155   1.282       .  A
O141       Zr146   2.399       .  S
O141       Zr148   2.377       .  S
O142       Zr147   2.389       .  S
O142       Zr148   2.383       .  S
O142        H177   0.967       .  S
O143       Zr146   2.402       .  S
O143       Zr163   2.390       .  S
O143        H180   0.966       .  S
O144       Zr147   2.385       .  S
O144       Zr163   2.381       .  S
Zr145       O170   2.442       .  S
Zr145       O164   2.451       .  S
Zr145       O172   2.455       .  S
Zr145       O160   2.441       .  S
Zr145       O151   2.397       .  S
Zr145       O152   2.415       .  S
Zr145       O153   2.377       .  S
Zr145       O154   2.387       .  S
Zr146       O165   2.437       .  S
Zr146       O158   2.435       .  S
Zr146       O159   2.436       .  S
Zr146       O152   2.400       .  S
Zr146       O153   2.390       .  S
Zr147       O149   2.435       .  S
Zr147       O171   2.441       .  S
Zr147       O173   2.415       .  S
Zr147       O151   2.386       .  S
Zr147       O154   2.397       .  S
Zr148       O174   2.435       .  S
Zr148       O175   2.435       .  S
Zr148       O150   2.436       .  S
Zr148       O151   2.386       .  S
Zr148       O152   2.395       .  S
O149        H186   0.990       .  S
O150        H181   0.990       .  S
O150        H195   0.990       .  S
O152        H178   0.965       .  S
O153       Zr163   2.376       .  S
O154       Zr163   2.388       .  S
O154        H179   0.968       .  S
C155       C3983   1.482       .  S
C156       C3928   1.485       .  S
C157       C3939   1.484       .  S
O158        H194   0.990       .  S
O159        C161   1.285       .  A
O160        C161   1.285       .  A
C161       C4071   1.488       .  S
O162       Zr163   2.438       .  S
O162        H191   0.990       .  S
Zr163       O166   2.435       .  S
Zr163       O167   2.440       .  S
Zr163       O168   2.398       .  S
O164        C169   1.286       .  A
O165        H182   0.990       .  S
O165        H197   0.990       .  S
O166        H183   0.990       .  S
O167        H187   0.990       .  S
O167        H196   0.990       .  S
O168        C169   1.278       .  A
C169       C3961   1.484       .  S
O170        H189   0.991       .  S
O170        H193   0.990       .  S
O171        H185   0.990       .  S
O171        H192   0.990       .  S
O172        C176   1.288       .  A
O173        C176   1.282       .  A
O174        H184   0.990       .  S
O175        H188   0.990       .  S
C176       C3895   1.480       .  S
Zr199       O200   2.443       .  S
Zr199       O201   2.444       .  S
Zr199       O202   2.452       .  S
Zr199       O205   2.448       .  S
Zr199       O207   2.388       .  S
Zr199       O208   2.387       .  S
Zr199       O209   2.412       .  S
Zr199       O210   2.399       .  S
O200        H256   0.990       .  S
O200        H264   0.991       .  S
O201        C221   1.285       .  A
O202        C223   1.287       .  A
O203       Zr213   2.417       .  S
O203        C222   1.282       .  A
O204       Zr212   2.423       .  S
O204        C223   1.283       .  A
O205        C222   1.287       .  A
O206       Zr214   2.417       .  S
O206        C221   1.282       .  A
O207       Zr212   2.399       .  S
O207       Zr214   2.380       .  S
O208       Zr213   2.392       .  S
O208       Zr214   2.380       .  S
O208        H243   0.965       .  S
O209       Zr212   2.404       .  S
O209       Zr229   2.384       .  S
O209        H246   0.965       .  S
O210       Zr213   2.381       .  S
O210       Zr229   2.380       .  S
Zr211       O236   2.442       .  S
Zr211       O230   2.458       .  S
Zr211       O238   2.461       .  S
Zr211       O226   2.452       .  S
Zr211       O217   2.403       .  S
Zr211       O218   2.420       .  S
Zr211       O219   2.379       .  S
Zr211       O220   2.391       .  S
Zr212       O231   2.436       .  S
Zr212       O224   2.434       .  S
Zr212       O225   2.433       .  S
Zr212       O218   2.398       .  S
Zr212       O219   2.392       .  S
Zr213       O215   2.435       .  S
Zr213       O237   2.440       .  S
Zr213       O239   2.414       .  S
Zr213       O217   2.383       .  S
Zr213       O220   2.395       .  S
Zr214       O240   2.435       .  S
Zr214       O241   2.436       .  S
Zr214       O216   2.436       .  S
Zr214       O217   2.387       .  S
Zr214       O218   2.396       .  S
O215        H252   0.990       .  S
O216        H247   0.990       .  S
O216        H261   0.990       .  S
O218        H244   0.965       .  S
O219       Zr229   2.382       .  S
O220       Zr229   2.387       .  S
O220        H245   0.966       .  S
C221       C3972   1.486       .  S
C222       C3851   1.481       .  S
C223       C3873   1.485       .  S
O224        H260   0.990       .  S
O225        C227   1.285       .  A
O226        C227   1.287       .  A
C227       C4214   1.491       .  S
O228       Zr229   2.439       .  S
O228        H257   0.990       .  S
Zr229       O232   2.437       .  S
Zr229       O233   2.440       .  S
Zr229       O234   2.393       .  S
O230        C235   1.288       .  A
O231        H248   0.990       .  S
O231        H263   0.990       .  S
O232        H249   0.990       .  S
O233        H253   0.990       .  S
O233        H262   0.990       .  S
O234        C235   1.277       .  A
C235       C3994   1.485       .  S
O236        H255   0.991       .  S
O236        H259   0.990       .  S
O237        H251   0.990       .  S
O237        H258   0.990       .  S
O238        C242   1.290       .  A
O239        C242   1.282       .  A
O240        H250   0.990       .  S
O241        H254   0.991       .  S
C242       C3829   1.483       .  S
Zr265       O266   2.443       .  S
Zr265       O267   2.455       .  S
Zr265       O268   2.462       .  S
Zr265       O271   2.432       .  S
Zr265       O273   2.383       .  S
Zr265       O274   2.390       .  S
Zr265       O275   2.410       .  S
Zr265       O276   2.412       .  S
O266        H322   0.990       .  S
O266        H330   0.991       .  S
O267        C287   1.288       .  A
O268        C289   1.288       .  A
O269       Zr279   2.444       .  S
O269        C288   1.288       .  A
O270       Zr278   2.402       .  S
O270        C289   1.280       .  A
O271        C288   1.285       .  A
O272       Zr280   2.409       .  S
O272        C287   1.280       .  A
O273       Zr278   2.395       .  S
O273       Zr280   2.380       .  S
O274       Zr279   2.392       .  S
O274       Zr280   2.376       .  S
O274        H309   0.966       .  S
O275       Zr278   2.398       .  S
O275       Zr295   2.388       .  S
O275        H312   0.966       .  S
O276       Zr279   2.390       .  S
O276       Zr295   2.390       .  S
Zr277       O302   2.441       .  S
Zr277       O296   2.450   1_554  S
Zr277       O304   2.435       .  S
Zr277       O292   2.454       .  S
Zr277       O283   2.406       .  S
Zr277       O284   2.409       .  S
Zr277       O285   2.378       .  S
Zr277       O286   2.391       .  S
Zr278       O297   2.436       .  S
Zr278       O290   2.435       .  S
Zr278       O291   2.420       .  S
Zr278       O284   2.391       .  S
Zr278       O285   2.392       .  S
Zr279       O281   2.435       .  S
Zr279       O303   2.437       .  S
Zr279       O305   2.429       .  S
Zr279       O283   2.394       .  S
Zr279       O286   2.398       .  S
Zr280       O306   2.436       .  S
Zr280       O307   2.436       .  S
Zr280       O282   2.438       .  S
Zr280       O283   2.391       .  S
Zr280       O284   2.383       .  S
O281        H318   0.990       .  S
O282        H313   0.990       .  S
O282        H327   0.990       .  S
O284        H310   0.964       .  S
O285       Zr295   2.386       .  S
O286       Zr295   2.378       .  S
O286        H311   0.965       .  S
C287       C3796   1.488       .  S
C288       C3818   1.491       .  S
C289       C3708   1.478       .  S
O290        H326   0.990       .  S
O291        C293   1.283       .  A
O292        C293   1.287       .  A
C293       C3730   1.486       .  S
O294       Zr295   2.436       .  S
O294        H323   0.990       .  S
Zr295       O298   2.434   1_554  S
Zr295       O299   2.439       .  S
Zr295       O300   2.408   1_554  S
O296        C301   1.286       .  A
O297        H314   0.990       .  S
O297        H329   0.990   1_554  S
O298        H315   0.989       .  S
O299        H319   0.990   1_554  S
O299        H328   0.990   1_554  S
O300        C301   1.280       .  A
C301       C3763   1.486       .  S
O302        H321   0.991       .  S
O302        H325   0.990   1_554  S
O303        H317   0.990       .  S
O303        H324   0.990       .  S
O304        C308   1.285       .  A
O305        C308   1.285       .  A
O306        H316   0.990       .  S
O307        H320   0.990       .  S
C308       C3752   1.486       .  S
Zr331       O332   2.442       .  S
Zr331       O333   2.445       .  S
Zr331       O334   2.471       .  S
Zr331       O337   2.436       .  S
Zr331       O339   2.385       .  S
Zr331       O340   2.389       .  S
Zr331       O341   2.408       .  S
Zr331       O342   2.408       .  S
O332        H388   0.990       .  S
O332        H396   0.990       .  S
O333        C353   1.285       .  A
O334        C355   1.289       .  A
O335       Zr345   2.431       .  S
O335        C354   1.285       .  A
O336       Zr344   2.417       .  S
O336        C355   1.282       .  A
O337        C354   1.286       .  A
O338       Zr346   2.410       .  S
O338        C353   1.280       .  A
O339       Zr344   2.399       .  S
O339       Zr346   2.383       .  S
O340       Zr345   2.396       .  S
O340       Zr346   2.374       .  S
O340        H375   0.966       .  S
O341       Zr344   2.405       .  S
O341       Zr361   2.381       .  S
O341        H378   0.964       .  S
O342       Zr345   2.393       .  S
O342       Zr361   2.387       .  S
Zr343       O368   2.441       .  S
Zr343       O362   2.452       .  S
Zr343       O370   2.454       .  S
Zr343       O358   2.460       .  S
Zr343       O349   2.406       .  S
Zr343       O350   2.415       .  S
Zr343       O351   2.379       .  S
Zr343       O352   2.391       .  S
Zr344       O363   2.436       .  S
Zr344       O356   2.435       .  S
Zr344       O357   2.424       .  S
Zr344       O350   2.400       .  S
Zr344       O351   2.396       .  S
Zr345       O347   2.436       .  S
Zr345       O369   2.439       .  S
Zr345       O371   2.425       .  S
Zr345       O349   2.394       .  S
Zr345       O352   2.398       .  S
Zr346       O372   2.436       .  S
Zr346       O373   2.436       .  S
Zr346       O348   2.437       .  S
Zr346       O349   2.395       .  S
Zr346       O350   2.383       .  S
O347        H384   0.990       .  S
O348        H379   0.990       .  S
O348        H393   0.989       .  S
O350        H376   0.964       .  S
O351       Zr361   2.385       .  S
O352       Zr361   2.379       .  S
O352        H377   0.966       .  S
C353       C3774   1.485       .  S
C354       C3686   1.486       .  S
C355       C3609   1.482       .  S
O356        H392   0.990       .  S
O357        C359   1.283       .  A
O358        C359   1.289       .  A
C359       C3631   1.487       .  S
O360       Zr361   2.439       .  S
O360        H389   0.991       .  S
Zr361       O364   2.437       .  S
Zr361       O365   2.439       .  S
Zr361       O366   2.400       .  S
O362        C367   1.286       .  A
O363        H380   0.990       .  S
O363        H395   0.990       .  S
O364        H381   0.990       .  S
O365        H385   0.990       .  S
O365        H394   0.990       .  S
O366        C367   1.278       .  A
C367       C3785   1.483       .  S
O368        H387   0.990       .  S
O368        H391   0.990       .  S
O369        H383   0.990       .  S
O369        H390   0.990       .  S
O370        C374   1.289       .  A
O371        C374   1.284       .  A
O372        H382   0.990       .  S
O373        H386   0.990       .  S
C374       C3653   1.491       .  S
Zr397       O398   2.442       .  S
Zr397       O399   2.449       .  S
Zr397       O400   2.460       .  S
Zr397       O403   2.429       .  S
Zr397       O405   2.383       .  S
Zr397       O406   2.385       .  S
Zr397       O407   2.408       .  S
Zr397       O408   2.408       .  S
O398        H454   0.990       .  S
O398        H462   0.990       .  S
O399        C419   1.287       .  A
O400        C421   1.288       .  A
O401       Zr411   2.450       .  S
O401        C420   1.288       .  A
O402       Zr410   2.416       .  S
O402        C421   1.282       .  A
O403        C420   1.285       .  A
O404       Zr412   2.413       .  S
O404        C419   1.281       .  A
O405       Zr410   2.401       .  S
O405       Zr412   2.381       .  S
O406       Zr411   2.394       .  S
O406       Zr412   2.373       .  S
O406        H441   0.966       .  S
O407       Zr410   2.405       .  S
O407       Zr427   2.380       .  S
O407        H444   0.965       .  S
O408       Zr411   2.391       .  S
O408       Zr427   2.390       .  S
Zr409       O434   2.442       .  S
Zr409       O428   2.448       .  S
Zr409       O436   2.424       .  S
Zr409       O424   2.447       .  S
Zr409       O415   2.406       .  S
Zr409       O416   2.408       .  S
Zr409       O417   2.376       .  S
Zr409       O418   2.388       .  S
Zr410       O429   2.438       .  S
Zr410       O422   2.435       .  S
Zr410       O423   2.436       .  S
Zr410       O416   2.396       .  S
Zr410       O417   2.396       .  S
Zr411       O413   2.435       .  S
Zr411       O435   2.438       .  S
Zr411       O437   2.437       .  S
Zr411       O415   2.395       .  S
Zr411       O418   2.394       .  S
Zr412       O438   2.436       .  S
Zr412       O439   2.435       .  S
Zr412       O414   2.438       .  S
Zr412       O415   2.391       .  S
Zr412       O416   2.387       .  S
O413        H450   0.990       .  S
O414        H445   0.990       .  S
O414        H459   0.990       .  S
O416        H442   0.965       .  S
O417       Zr427   2.386       .  S
O418       Zr427   2.376       .  S
O418        H443   0.966       .  S
C419       C3598   1.485       .  S
C420       C3807   1.491       .  S
C421       C3521   1.478       .  S
O422        H458   0.990       .  S
O423        C425   1.286       .  A
O424        C425   1.286       .  A
C425       C4148   1.490       .  S
O426       Zr427   2.435       .  S
O426        H455   0.990       .  S
Zr427       O430   2.435       .  S
Zr427       O431   2.438       .  S
Zr427       O432   2.398       .  S
O428        C433   1.286       .  A
O429        H446   0.990       .  S
O429        H461   0.990       .  S
O430        H447   0.990       .  S
O431        H451   0.990       .  S
O431        H460   0.990       .  S
O432        C433   1.278       .  A
C433       C3565   1.482       .  S
O434        H453   0.991       .  S
O434        H457   0.990       .  S
O435        H449   0.990       .  S
O435        H456   0.990       .  S
O436        C440   1.283       .  A
O437        C440   1.287       .  A
O438        H448   0.990       .  S
O439        H452   0.990       .  S
C440       C3554   1.485       .  S
Zr463       O464   2.442       .  S
Zr463       O465   2.439       .  S
Zr463       O466   2.454       .  S
Zr463       O469   2.436       .  S
Zr463       O471   2.386       .  S
Zr463       O472   2.385       .  S
Zr463       O473   2.408       .  S
Zr463       O474   2.408       .  S
O464        H520   0.991       .  S
O464        H528   0.990       .  S
O465        C485   1.285       .  A
O466        C487   1.287       .  A
O467       Zr477   2.440       .  S
O467        C486   1.287       .  A
O468       Zr476   2.414       .  S
O468        C487   1.282       .  A
O469        C486   1.286       .  A
O470       Zr478   2.416       .  S
O470        C485   1.282       .  A
O471       Zr476   2.399       .  S
O471       Zr478   2.378       .  S
O472       Zr477   2.391       .  S
O472       Zr478   2.371       .  S
O472        H507   0.966       .  S
O473       Zr476   2.405       .  S
O473       Zr493   2.385       .  S
O473        H510   0.965       .  S
O474       Zr477   2.395       .  S
O474       Zr493   2.392       .  S
Zr475       O500   2.442       .  S
Zr475       O494   2.449       .  S
Zr475       O502   2.433       .  S
Zr475       O490   2.439       .  S
Zr475       O481   2.405       .  S
Zr475       O482   2.415       .  S
Zr475       O483   2.377       .  S
Zr475       O484   2.387       .  S
Zr476       O495   2.437       .  S
Zr476       O488   2.435       .  S
Zr476       O489   2.436       .  S
Zr476       O482   2.394       .  S
Zr476       O483   2.392       .  S
Zr477       O479   2.436       .  S
Zr477       O501   2.438       .  S
Zr477       O503   2.435       .  S
Zr477       O481   2.389       .  S
Zr477       O484   2.397       .  S
Zr478       O504   2.434       .  S
Zr478       O505   2.434       .  S
Zr478       O480   2.436       .  S
Zr478       O481   2.393       .  S
Zr478       O482   2.388       .  S
O479        H516   0.990       .  S
O480        H511   0.990       .  S
O480        H525   0.990       .  S
O482        H508   0.965       .  S
O483       Zr493   2.384       .  S
O484       Zr493   2.383       .  S
O484        H509   0.966       .  S
C485       C3576   1.485       .  S
C486       C3675   1.491       .  S
C487       C3488   1.478       .  S
O488        H524   0.990       .  S
O489        C491   1.285       .  A
O490        C491   1.284       .  A
C491       C4060   1.486       .  S
O492       Zr493   2.439       .  S
O492        H521   0.990       .  S
Zr493       O496   2.437       .  S
Zr493       O497   2.440       .  S
Zr493       O498   2.403       .  S
O494        C499   1.286       .  A
O495        H512   0.990       .  S
O495        H527   0.990       .  S
O496        H513   0.990       .  S
O497        H517   0.990       .  S
O497        H526   0.990       .  S
O498        C499   1.279       .  A
C499       C3587   1.485       .  S
O500        H519   0.991       .  S
O500        H523   0.990       .  S
O501        H515   0.990       .  S
O501        H522   0.990       .  S
O502        C506   1.284       .  A
O503        C506   1.286       .  A
O504        H514   0.990       .  S
O505        H518   0.990       .  S
C506       C3510   1.488       .  S
Zr529       O530   2.443       .  S
Zr529       O531   2.458       .  S
Zr529       O532   2.455       .  S
Zr529       O535   2.454       .  S
Zr529       O537   2.389       .  S
Zr529       O538   2.385       .  S
Zr529       O539   2.419       .  S
Zr529       O540   2.399       .  S
O530        H586   0.990       .  S
O530        H594   0.991       .  S
O531        C551   1.287       .  A
O532        C553   1.287       .  A
O533       Zr543   2.417       .  S
O533        C552   1.283       .  A
O534       Zr542   2.422       .  S
O534        C553   1.283       .  A
O535        C552   1.289       .  A
O536       Zr544   2.407       .  S
O536        C551   1.279       .  A
O537       Zr542   2.403       .  S
O537       Zr544   2.379       .  S
O538       Zr543   2.393       .  S
O538       Zr544   2.385       .  S
O538        H573   0.966       .  S
O539       Zr542   2.408       .  S
O539       Zr559   2.386       .  S
O539        H576   0.965       .  S
O540       Zr543   2.382       .  S
O540       Zr559   2.382       .  S
Zr541       O566   2.442       .  S
Zr541       O560   2.450       .  S
Zr541       O568   2.450       .  S
Zr541       O556   2.439       .  S
Zr541       O547   2.395       .  S
Zr541       O548   2.416       .  S
Zr541       O549   2.381       .  S
Zr541       O550   2.386       .  S
Zr542       O561   2.438       .  S
Zr542       O554   2.434       .  S
Zr542       O555   2.442       .  S
Zr542       O548   2.395       .  S
Zr542       O549   2.394       .  S
Zr543       O545   2.436       .  S
Zr543       O567   2.437       .  S
Zr543       O569   2.414       .  S
Zr543       O547   2.385       .  S
Zr543       O550   2.390       .  S
Zr544       O570   2.436       .  S
Zr544       O571   2.436       .  S
Zr544       O546   2.438       .  S
Zr544       O547   2.384       .  S
Zr544       O548   2.393       .  S
O545        H582   0.990       .  S
O546        H577   0.990       .  S
O546        H591   0.990       .  S
O548        H574   0.965       .  S
O549       Zr559   2.381       .  S
O550       Zr559   2.382       .  S
O550        H575   0.966       .  S
C551       C3444   1.486       .  S
C552       C3543   1.484       .  S
C553       C3389   1.485       .  S
O554        H590   0.990       .  S
O555        C557   1.287       .  A
O556        C557   1.285       .  A
C557       C3455   1.489       .  S
O558       Zr559   2.439       .  S
O558        H587   0.991       .  S
Zr559       O562   2.437       .  S
Zr559       O563   2.440       .  S
Zr559       O564   2.397       .  S
O560        C565   1.286       .  A
O561        H578   0.990       .  S
O561        H593   0.990       .  S
O562        H579   0.990       .  S
O563        H583   0.990       .  S
O563        H592   0.990       .  S
O564        C565   1.278       .  A
C565       C3411   1.481       .  S
O566        H585   0.991       .  S
O566        H589   0.990       .  S
O567        H581   0.990       .  S
O567        H588   0.990       .  S
O568        C572   1.287       .  A
O569        C572   1.282       .  A
O570        H580   0.990       .  S
O571        H584   0.990       .  S
C572       C3367   1.480       .  S
Zr595       O596   2.444       .  S
Zr595       O597   2.449       .  S
Zr595       O598   2.437       .  S
Zr595       O601   2.438       .  S
Zr595       O603   2.388       .  S
Zr595       O604   2.383       .  S
Zr595       O605   2.414       .  S
Zr595       O606   2.400       .  S
O596        H652   0.990       .  S
O596        H660   0.991       .  S
O597        C617   1.285       .  A
O598        C619   1.284       .  A
O599       Zr609   2.433       .  S
O599        C618   1.285       .  A
O600       Zr608   2.432       .  S
O600        C619   1.285       .  A
O601        C618   1.285       .  A
O602       Zr610   2.402       .  S
O602        C617   1.279       .  A
O603       Zr608   2.403       .  S
O603       Zr610   2.376       .  S
O604       Zr609   2.391       .  S
O604       Zr610   2.385       .  S
O604        H639   0.965       .  S
O605       Zr608   2.408       .  S
O605       Zr625   2.387       .  S
O605        H642   0.965       .  S
O606       Zr609   2.377       .  S
O606       Zr625   2.382       .  S
Zr607       O632   2.443   1_556  S
Zr607       O626   2.453   1_556  S
Zr607       O634   2.467       .  S
Zr607       O622   2.445       .  S
Zr607       O613   2.397       .  S
Zr607       O614   2.417       .  S
Zr607       O615   2.382       .  S
Zr607       O616   2.390       .  S
Zr608       O627   2.438       .  S
Zr608       O620   2.434       .  S
Zr608       O621   2.444       .  S
Zr608       O614   2.402       .  S
Zr608       O615   2.393       .  S
Zr609       O611   2.437       .  S
Zr609       O633   2.439       .  S
Zr609       O635   2.406       .  S
Zr609       O613   2.389       .  S
Zr609       O616   2.392       .  S
Zr610       O636   2.435       .  S
Zr610       O637   2.434       .  S
Zr610       O612   2.436       .  S
Zr610       O613   2.381       .  S
Zr610       O614   2.396       .  S
O611        H648   0.990       .  S
O612        H643   0.990       .  S
O612        H657   0.990       .  S
O614        H640   0.965       .  S
O615       Zr625   2.378       .  S
O616       Zr625   2.384       .  S
O616        H641   0.965   1_556  S
C617       C3422   1.484       .  S
C618       C3499   1.486       .  S
C619       C3334   1.483       .  S
O620        H656   0.990       .  S
O621        C623   1.287       .  A
O622        C623   1.286       .  A
C623       C3345   1.494   1_556  S
O624       Zr625   2.438       .  S
O624        H653   0.990   1_556  S
Zr625       O628   2.436   1_556  S
Zr625       O629   2.440   1_556  S
Zr625       O630   2.395   1_556  S
O626        C631   1.287       .  A
O627        H644   0.990       .  S
O627        H659   0.990       .  S
O628        H645   0.990       .  S
O629        H649   0.990       .  S
O629        H658   0.990   1_554  S
O630        C631   1.278       .  A
C631       C3433   1.483       .  S
O632        H651   0.991   1_554  S
O632        H655   0.990       .  S
O633        H647   0.990       .  S
O633        H654   0.990       .  S
O634        C638   1.291       .  A
O635        C638   1.281       .  A
O636        H646   0.990       .  S
O637        H650   0.990       .  S
C638       C3312   1.485       .  S
Zr661       O662   2.442       .  S
Zr661       O663   2.448       .  S
Zr661       O664   2.444       .  S
Zr661       O667   2.447       .  S
Zr661       O669   2.389       .  S
Zr661       O670   2.383       .  S
Zr661       O671   2.414       .  S
Zr661       O672   2.398       .  S
O662        H718   0.990       .  S
O662        H726   0.990       .  S
O663        C683   1.286       .  A
O664        C685   1.286       .  A
O665       Zr675   2.417       .  S
O665        C684   1.282       .  A
O666       Zr674   2.422       .  S
O666        C685   1.284       .  A
O667        C684   1.287       .  A
O668       Zr676   2.414       .  S
O668        C683   1.281       .  A
O669       Zr674   2.402       .  S
O669       Zr676   2.371       .  S
O670       Zr675   2.388       .  S
O670       Zr676   2.384       .  S
O670        H705   0.965       .  S
O671       Zr674   2.406       .  S
O671       Zr691   2.389       .  S
O671        H708   0.966       .  S
O672       Zr675   2.385       .  S
O672       Zr691   2.384       .  S
Zr673       O698   2.442       .  S
Zr673       O692   2.450       .  S
Zr673       O700   2.462       .  S
Zr673       O688   2.442       .  S
Zr673       O679   2.395       .  S
Zr673       O680   2.419       .  S
Zr673       O681   2.382       .  S
Zr673       O682   2.387       .  S
Zr674       O693   2.436       .  S
Zr674       O686   2.434       .  S
Zr674       O687   2.445       .  S
Zr674       O680   2.398       .  S
Zr674       O681   2.388       .  S
Zr675       O677   2.436       .  S
Zr675       O699   2.441       .  S
Zr675       O701   2.408       .  S
Zr675       O679   2.386       .  S
Zr675       O682   2.394       .  S
Zr676       O702   2.435       .  S
Zr676       O703   2.435       .  S
Zr676       O678   2.439       .  S
Zr676       O679   2.390       .  S
Zr676       O680   2.396       .  S
O677        H714   0.990       .  S
O678        H709   0.990       .  S
O678        H723   0.990       .  S
O680        H706   0.965       .  S
O681       Zr691   2.379       .  S
O682       Zr691   2.389       .  S
O682        H707   0.966       .  S
C683       C3279   1.484       .  S
C684       C3235   1.480       .  S
C685       C3213   1.483       .  S
O686        H722   0.990       .  S
O687        C689   1.287       .  A
O688        C689   1.285       .  A
C689       C3356   1.493       .  S
O690       Zr691   2.439       .  S
O690        H719   0.990       .  S
Zr691       O694   2.438       .  S
Zr691       O695   2.438       .  S
Zr691       O696   2.403       .  S
O692        C697   1.286       .  A
O693        H710   0.990       .  S
O693        H725   0.990       .  S
O694        H711   0.990       .  S
O695        H715   0.990       .  S
O695        H724   0.990       .  S
O696        C697   1.279       .  A
C697       C3268   1.484       .  S
O698        H717   0.991       .  S
O698        H721   0.990       .  S
O699        H713   0.990       .  S
O699        H720   0.990       .  S
O700        C704   1.289       .  A
O701        C704   1.281       .  A
O702        H712   0.990       .  S
O703        H716   0.990       .  S
C704       C3191   1.484       .  S
Zr727       O728   2.443       .  S
Zr727       O729   2.442       .  S
Zr727       O730   2.447       .  S
Zr727       O733   2.438       .  S
Zr727       O735   2.383       .  S
Zr727       O736   2.383       .  S
Zr727       O737   2.409       .  S
Zr727       O738   2.398       .  S
O728        H784   0.990       .  S
O728        H792   0.990       .  S
O729        C749   1.285       .  A
O730        C751   1.286       .  A
O731       Zr741   2.417       .  S
O731        C750   1.282       .  A
O732       Zr740   2.418       .  S
O732        C751   1.282       .  A
O733        C750   1.286       .  A
O734       Zr742   2.409       .  S
O734        C749   1.280       .  A
O735       Zr740   2.401       .  S
O735       Zr742   2.375       .  S
O736       Zr741   2.392       .  S
O736       Zr742   2.382       .  S
O736        H771   0.966       .  S
O737       Zr740   2.405       .  S
O737       Zr757   2.398       .  S
O737        H774   0.966       .  S
O738       Zr741   2.380       .  S
O738       Zr757   2.379       .  S
Zr739       O764   2.441       .  S
Zr739       O758   2.446       .  S
Zr739       O766   2.464       .  S
Zr739       O754   2.448       .  S
Zr739       O745   2.391       .  S
Zr739       O746   2.414       .  S
Zr739       O747   2.384       .  S
Zr739       O748   2.388       .  S
Zr740       O759   2.437       .  S
Zr740       O752   2.435       .  S
Zr740       O753   2.435       .  S
Zr740       O746   2.398       .  S
Zr740       O747   2.389       .  S
Zr741       O743   2.436       .  S
Zr741       O765   2.438       .  S
Zr741       O767   2.406       .  S
Zr741       O745   2.384       .  S
Zr741       O748   2.389       .  S
Zr742       O768   2.434       .  S
Zr742       O769   2.435       .  S
Zr742       O744   2.437       .  S
Zr742       O745   2.380       .  S
Zr742       O746   2.393       .  S
O743        H780   0.990       .  S
O744        H775   0.990       .  S
O744        H789   0.990       .  S
O746        H772   0.965       .  S
O747       Zr757   2.382       .  S
O748       Zr757   2.387       .  S
O748        H773   0.966       .  S
C749       C3257   1.483       .  S
C750       C3180   1.478       .  S
C751       C3147   1.484       .  S
O752        H788   0.990       .  S
O753        C755   1.285       .  A
O754        C755   1.286       .  A
C755       C3466   1.490       .  S
O756       Zr757   2.441       .  S
O756        H785   0.991       .  S
Zr757       O760   2.439       .  S
Zr757       O761   2.442       .  S
Zr757       O762   2.403       .  S
O758        C763   1.285       .  A
O759        H776   0.990       .  S
O759        H791   0.990       .  S
O760        H777   0.990       .  S
O761        H781   0.990       .  S
O761        H790   0.990       .  S
O762        C763   1.279       .  A
C763       C3290   1.483       .  S
O764        H783   0.991       .  S
O764        H787   0.990       .  S
O765        H779   0.990       .  S
O765        H786   0.990       .  S
O766        C770   1.290       .  A
O767        C770   1.281       .  A
O768        H778   0.990       .  S
O769        H782   0.990       .  S
C770       C3136   1.481       .  S
Zr793       O794   2.443       .  S
Zr793       O795   2.454       .  S
Zr793       O796   2.462       .  S
Zr793       O799   2.431       .  S
Zr793       O801   2.384       .  S
Zr793       O802   2.386       .  S
Zr793       O803   2.412       .  S
Zr793       O804   2.413       .  S
O794        H850   0.990       .  S
O794        H858   0.990       .  S
O795        C815   1.287       .  A
O796        C817   1.288       .  A
O797       Zr807   2.436       .  S
O797        C816   1.285       .  A
O798       Zr806   2.405       .  S
O798        C817   1.280       .  A
O799        C816   1.285       .  A
O800       Zr808   2.415       .  S
O800        C815   1.281       .  A
O801       Zr806   2.400       .  S
O801       Zr808   2.380       .  S
O802       Zr807   2.394       .  S
O802       Zr808   2.377       .  S
O802        H837   0.966       .  S
O803       Zr806   2.402       .  S
O803       Zr823   2.386       .  S
O803        H840   0.965       .  S
O804       Zr807   2.389       .  S
O804       Zr823   2.396       .  S
Zr805       O830   2.442       .  S
Zr805       O824   2.447   1_554  S
Zr805       O832   2.447       .  S
Zr805       O820   2.458       .  S
Zr805       O811   2.405       .  S
Zr805       O812   2.413       .  S
Zr805       O813   2.378       .  S
Zr805       O814   2.390       .  S
Zr806       O825   2.436       .  S
Zr806       O818   2.435       .  S
Zr806       O819   2.423       .  S
Zr806       O812   2.394       .  S
Zr806       O813   2.392       .  S
Zr807       O809   2.435       .  S
Zr807       O831   2.438       .  S
Zr807       O833   2.425       .  S
Zr807       O811   2.395       .  S
Zr807       O814   2.394       .  S
Zr808       O834   2.434       .  S
Zr808       O835   2.434       .  S
Zr808       O810   2.438       .  S
Zr808       O811   2.393       .  S
Zr808       O812   2.384       .  S
O809        H846   0.990       .  S
O810        H841   0.990       .  S
O810        H855   0.990       .  S
O812        H838   0.964       .  S
O813       Zr823   2.383       .  S
O814       Zr823   2.380       .  S
O814        H839   0.966       .  S
C815       C3092   1.488       .  S
C816       C3103   1.488       .  S
C817       C3004   1.482       .  S
O818        H854   0.990       .  S
O819        C821   1.283       .  A
O820        C821   1.288       .  A
C821       C3037   1.488       .  S
O822       Zr823   2.439       .  S
O822        H851   0.990       .  S
Zr823       O826   2.438   1_554  S
Zr823       O827   2.439       .  S
Zr823       O828   2.408   1_554  S
O824        C829   1.285       .  A
O825        H842   0.990       .  S
O825        H857   0.990       .  S
O826        H843   0.990       .  S
O827        H847   0.990   1_554  S
O827        H856   0.990       .  S
O828        C829   1.279       .  A
C829       C3070   1.482       .  S
O830        H849   0.990       .  S
O830        H853   0.990   1_554  S
O831        H845   0.990       .  S
O831        H852   0.990       .  S
O832        C836   1.288       .  A
O833        C836   1.284       .  A
O834        H844   0.990       .  S
O835        H848   0.990       .  S
C836       C3026   1.486       .  S
Zr859       O860   2.443       .  S
Zr859       O861   2.446       .  S
Zr859       O862   2.464       .  S
Zr859       O865   2.430       .  S
Zr859       O867   2.383       .  S
Zr859       O868   2.388       .  S
Zr859       O869   2.403       .  S
Zr859       O870   2.409       .  S
O860        H916   0.990       .  S
O860        H924   0.991       .  S
O861        C881   1.287       .  A
O862        C883   1.289       .  A
O863       Zr873   2.440       .  S
O863        C882   1.287       .  A
O864       Zr872   2.407       .  S
O864        C883   1.281       .  A
O865        C882   1.285       .  A
O866       Zr874   2.412       .  S
O866        C881   1.281       .  A
O867       Zr872   2.395       .  S
O867       Zr874   2.378       .  S
O868       Zr873   2.390       .  S
O868       Zr874   2.372       .  S
O868        H903   0.966       .  S
O869       Zr872   2.396       .  S
O869       Zr889   2.384       .  S
O869        H906   0.965       .  S
O870       Zr873   2.392       .  S
O870       Zr889   2.389       .  S
Zr871       O896   2.440       .  S
Zr871       O890   2.450       .  S
Zr871       O898   2.438       .  S
Zr871       O886   2.450       .  S
Zr871       O877   2.406       .  S
Zr871       O878   2.412       .  S
Zr871       O879   2.375       .  S
Zr871       O880   2.390       .  S
Zr872       O891   2.437       .  S
Zr872       O884   2.434       .  S
Zr872       O885   2.419       .  S
Zr872       O878   2.392       .  S
Zr872       O879   2.390       .  S
Zr873       O875   2.436       .  S
Zr873       O897   2.438       .  S
Zr873       O899   2.437       .  S
Zr873       O877   2.389       .  S
Zr873       O880   2.397       .  S
Zr874       O900   2.434       .  S
Zr874       O901   2.435       .  S
Zr874       O876   2.438       .  S
Zr874       O877   2.394       .  S
Zr874       O878   2.390       .  S
O875        H912   0.990       .  S
O876        H907   0.990       .  S
O876        H921   0.990       .  S
O878        H904   0.965       .  S
O879       Zr889   2.382       .  S
O880       Zr889   2.384       .  S
O880        H905   0.966       .  S
C881       C3059   1.486       .  S
C882       C2982   1.487       .  S
C883       C2905   1.482       .  S
O884        H920   0.990       .  S
O885        C887   1.283       .  A
O886        C887   1.287       .  A
C887       C2960   1.484       .  S
O888       Zr889   2.439       .  S
O888        H917   0.990       .  S
Zr889       O892   2.437       .  S
Zr889       O893   2.439       .  S
Zr889       O894   2.410       .  S
O890        C895   1.287       .  A
O891        H908   0.990       .  S
O891        H923   0.990       .  S
O892        H909   0.990       .  S
O893        H913   0.990       .  S
O893        H922   0.990       .  S
O894        C895   1.281       .  A
C895       C3081   1.488       .  S
O896        H915   0.990       .  S
O896        H919   0.990       .  S
O897        H911   0.990       .  S
O897        H918   0.990       .  S
O898        C902   1.285       .  A
O899        C902   1.286       .  A
O900        H910   0.990       .  S
O901        H914   0.990       .  S
C902       C2938   1.490       .  S
Zr925       O926   2.441       .  S
Zr925       O927   2.439       .  S
Zr925       O928   2.467       .  S
Zr925       O931   2.434       .  S
Zr925       O933   2.383       .  S
Zr925       O934   2.386       .  S
Zr925       O935   2.403       .  S
Zr925       O936   2.407       .  S
O926        H982   0.990       .  S
O926        H990   0.990       .  S
O927        C947   1.285       .  A
O928        C949   1.289       .  A
O929       Zr939   2.434       .  S
O929        C948   1.286       .  A
O930       Zr938   2.406       .  S
O930        C949   1.280       .  A
O931        C948   1.286       .  A
O932       Zr940   2.408       .  S
O932        C947   1.280       .  A
O933       Zr938   2.398       .  S
O933       Zr940   2.383       .  S
O934       Zr939   2.391       .  S
O934       Zr940   2.370       .  S
O934        H969   0.966       .  S
O935       Zr938   2.401       .  S
O935       Zr955   2.384       .  S
O935        H972   0.965       .  S
O936       Zr939   2.397       .  S
O936       Zr955   2.391       .  S
Zr937       O962   2.441       .  S
Zr937       O956   2.449       .  S
Zr937       O964   2.437       .  S
Zr937       O952   2.453       .  S
Zr937       O943   2.406       .  S
Zr937       O944   2.411       .  S
Zr937       O945   2.373       .  S
Zr937       O946   2.389       .  S
Zr938       O957   2.437       .  S
Zr938       O950   2.435       .  S
Zr938       O951   2.414       .  S
Zr938       O944   2.395       .  S
Zr938       O945   2.391       .  S
Zr939       O941   2.435       .  S
Zr939       O963   2.437       .  S
Zr939       O965   2.444       .  S
Zr939       O943   2.390       .  S
Zr939       O946   2.395       .  S
Zr940       O966   2.436       .  S
Zr940       O967   2.435       .  S
Zr940       O942   2.436       .  S
Zr940       O943   2.389       .  S
Zr940       O944   2.387       .  S
O941        H978   0.990       .  S
O942        H973   0.990       .  S
O942        H987   0.990       .  S
O944        H970   0.965       .  S
O945       Zr955   2.383       .  S
O946       Zr955   2.382       .  S
O946        H971   0.966       .  S
C947       C2883   1.480       .  S
C948       C3114   1.487       .  S
C949       C2839   1.484       .  S
O950        H986   0.990       .  S
O951        C953   1.282       .  A
O952        C953   1.287       .  A
C953       C3400   1.484       .  S
O954       Zr955   2.439       .  S
O954        H983   0.991       .  S
Zr955       O958   2.438       .  S
Zr955       O959   2.438       .  S
Zr955       O960   2.400       .  S
O956        C961   1.286       .  A
O957        H974   0.990       .  S
O957        H989   0.990       .  S
O958        H975   0.990       .  S
O959        H979   0.990       .  S
O959        H988   0.990       .  S
O960        C961   1.278       .  A
C961       C2861   1.482       .  S
O962        H981   0.991       .  S
O962        H985   0.990       .  S
O963        H977   0.990       .  S
O963        H984   0.990       .  S
O964        C968   1.285       .  A
O965        C968   1.287       .  A
O966        H976   0.990       .  S
O967        H980   0.990       .  S
C968       C4115   1.492       .  S
Zr991       O992   2.442       .  S
Zr991       O993   2.443       .  S
Zr991       O994   2.461       .  S
Zr991       O997   2.427       .  S
Zr991       O999   2.385       .  S
Zr991      O1000   2.387       .  S
Zr991      O1001   2.403       .  S
Zr991      O1002   2.405       .  S
O992       H1048   0.990       .  S
O992       H1056   0.991       .  S
O993       C1013   1.286       .  A
O994       C1015   1.288       .  A
O995      Zr1005   2.438       .  S
O995       C1014   1.287       .  A
O996      Zr1004   2.417       .  S
O996       C1015   1.282       .  A
O997       C1014   1.284       .  A
O998      Zr1006   2.421       .  S
O998       C1013   1.282       .  A
O999      Zr1004   2.397       .  S
O999      Zr1006   2.384       .  S
O1000     Zr1005   2.390       .  S
O1000     Zr1006   2.373       .  S
O1000      H1035   0.966       .  S
O1001     Zr1004   2.401       .  S
O1001     Zr1021   2.378       .  S
O1001      H1038   0.964       .  S
O1002     Zr1005   2.391       .  S
O1002     Zr1021   2.388       .  S
Zr1003     O1028   2.444       .  S
Zr1003     O1022   2.453       .  S
Zr1003     O1030   2.443       .  S
Zr1003     O1018   2.441       .  S
Zr1003     O1009   2.408       .  S
Zr1003     O1010   2.414       .  S
Zr1003     O1011   2.378       .  S
Zr1003     O1012   2.388       .  S
Zr1004     O1023   2.436       .  S
Zr1004     O1016   2.435       .  S
Zr1004     O1017   2.424       .  S
Zr1004     O1010   2.391       .  S
Zr1004     O1011   2.394       .  S
Zr1005     O1007   2.435       .  S
Zr1005     O1029   2.438       .  S
Zr1005     O1031   2.429       .  S
Zr1005     O1009   2.397       .  S
Zr1005     O1012   2.400       .  S
Zr1006     O1032   2.436       .  S
Zr1006     O1033   2.436       .  S
Zr1006     O1008   2.437       .  S
Zr1006     O1009   2.399       .  S
Zr1006     O1010   2.383       .  S
O1007      H1044   0.990       .  S
O1008      H1039   0.990       .  S
O1008      H1053   0.990       .  S
O1010      H1036   0.965       .  S
O1011     Zr1021   2.383       .  S
O1012     Zr1021   2.382       .  S
O1012      H1037   0.966       .  S
C1013      C2872   1.484       .  S
C1014      C2971   1.487       .  S
C1015      C2817   1.480       .  S
O1016      H1052   0.990       .  S
O1017      C1019   1.284       .  A
O1018      C1019   1.286       .  A
C1019      C3323   1.482       .  S
O1020     Zr1021   2.439       .  S
O1020      H1049   0.990       .  S
Zr1021     O1024   2.440       .  S
Zr1021     O1025   2.440       .  S
Zr1021     O1026   2.397       .  S
O1022      C1027   1.287       .  A
O1023      H1040   0.990       .  S
O1023      H1055   0.990       .  S
O1024      H1041   0.990       .  S
O1025      H1045   0.990       .  S
O1025      H1054   0.990       .  S
O1026      C1027   1.277       .  A
C1027      C2894   1.481       .  S
O1028      H1047   0.990       .  S
O1028      H1051   0.991       .  S
O1029      H1043   0.990       .  S
O1029      H1050   0.990       .  S
O1030      C1034   1.285       .  A
O1031      C1034   1.284       .  A
O1032      H1042   0.990       .  S
O1033      H1046   0.990       .  S
C1034      C4027   1.488       .  S
Zr1057     O1058   2.442       .  S
Zr1057     O1059   2.451   1_554  S
Zr1057     O1060   2.463       .  S
Zr1057     O1063   2.419       .  S
Zr1057     O1065   2.379       .  S
Zr1057     O1066   2.388       .  S
Zr1057     O1067   2.405       .  S
Zr1057     O1068   2.413       .  S
O1058      H1114   0.990   1_554  S
O1058      H1122   0.990       .  S
O1059      C1079   1.287       .  A
O1060      C1081   1.288       .  A
O1061     Zr1071   2.458       .  S
O1061      C1080   1.290       .  A
O1062     Zr1070   2.405       .  S
O1062      C1081   1.280       .  A
O1063      C1080   1.283       .  A
O1064     Zr1072   2.409   1_556  S
O1064      C1079   1.281       .  A
O1065     Zr1070   2.397       .  S
O1065     Zr1072   2.384       .  S
O1066     Zr1071   2.390       .  S
O1066     Zr1072   2.374       .  S
O1066      H1101   0.966       .  S
O1067     Zr1070   2.398       .  S
O1067     Zr1087   2.389       .  S
O1067      H1104   0.965       .  S
O1068     Zr1071   2.386       .  S
O1068     Zr1087   2.395       .  S
Zr1069     O1094   2.441       .  S
Zr1069     O1088   2.443       .  S
Zr1069     O1096   2.442       .  S
Zr1069     O1084   2.473       .  S
Zr1069     O1075   2.410       .  S
Zr1069     O1076   2.406       .  S
Zr1069     O1077   2.374       .  S
Zr1069     O1078   2.396       .  S
Zr1070     O1089   2.437       .  S
Zr1070     O1082   2.435       .  S
Zr1070     O1083   2.413       .  S
Zr1070     O1076   2.395       .  S
Zr1070     O1077   2.389       .  S
Zr1071     O1073   2.436       .  S
Zr1071     O1095   2.438       .  S
Zr1071     O1097   2.432       .  S
Zr1071     O1075   2.399       .  S
Zr1071     O1078   2.400       .  S
Zr1072     O1098   2.434   1_554  S
Zr1072     O1099   2.436       .  S
Zr1072     O1074   2.437       .  S
Zr1072     O1075   2.390       .  S
Zr1072     O1076   2.376       .  S
O1073      H1110   0.990       .  S
O1074      H1105   0.990   1_554  S
O1074      H1119   0.990       .  S
O1076      H1102   0.964       .  S
O1077     Zr1087   2.382       .  S
O1078     Zr1087   2.380       .  S
O1078      H1103   0.967       .  S
C1079      C2751   1.485       .  S
C1080      C2795   1.492   1_554  S
C1081      C2993   1.478       .  S
O1082      H1118   0.990       .  S
O1083      C1085   1.281       .  A
O1084      C1085   1.291       .  A
C1085      C2740   1.488       .  S
O1086     Zr1087   2.440       .  S
O1086      H1115   0.990       .  S
Zr1087     O1090   2.437       .  S
Zr1087     O1091   2.442       .  S
Zr1087     O1092   2.411       .  S
O1088      C1093   1.285       .  A
O1089      H1106   0.990       .  S
O1089      H1121   0.990       .  S
O1090      H1107   0.990       .  S
O1091      H1111   0.990       .  S
O1091      H1120   0.990       .  S
O1092      C1093   1.280       .  A
C1093      C2773   1.484       .  S
O1094      H1113   0.990       .  S
O1094      H1117   0.990       .  S
O1095      H1109   0.990       .  S
O1095      H1116   0.990       .  S
O1096      C1100   1.287       .  A
O1097      C1100   1.286       .  A
O1098      H1108   0.990   1_556  S
O1099      H1112   0.990       .  S
C1100      C2707   1.488       .  S
Zr1123     O1124   2.441       .  S
Zr1123     O1125   2.446       .  S
Zr1123     O1126   2.462       .  S
Zr1123     O1129   2.437       .  S
Zr1123     O1131   2.380       .  S
Zr1123     O1132   2.385       .  S
Zr1123     O1133   2.409       .  S
Zr1123     O1134   2.409       .  S
O1124      H1180   0.990       .  S
O1124      H1188   0.990       .  S
O1125      C1145   1.285       .  A
O1126      C1147   1.289       .  A
O1127     Zr1137   2.437       .  S
O1127      C1146   1.285       .  A
O1128     Zr1136   2.421       .  S
O1128      C1147   1.283       .  A
O1129      C1146   1.285       .  A
O1130     Zr1138   2.403       .  S
O1130      C1145   1.279       .  A
O1131     Zr1136   2.395       .  S
O1131     Zr1138   2.382       .  S
O1132     Zr1137   2.396       .  S
O1132     Zr1138   2.377       .  S
O1132      H1167   0.966       .  S
O1133     Zr1136   2.400       .  S
O1133     Zr1153   2.383       .  S
O1133      H1170   0.964       .  S
O1134     Zr1137   2.391       .  S
O1134     Zr1153   2.396       .  S
Zr1135     O1160   2.441       .  S
Zr1135     O1154   2.451       .  S
Zr1135     O1162   2.438       .  S
Zr1135     O1150   2.450       .  S
Zr1135     O1141   2.399       .  S
Zr1135     O1142   2.408       .  S
Zr1135     O1143   2.373       .  S
Zr1135     O1144   2.392       .  S
Zr1136     O1155   2.438       .  S
Zr1136     O1148   2.435       .  S
Zr1136     O1149   2.424       .  S
Zr1136     O1142   2.398       .  S
Zr1136     O1143   2.390       .  S
Zr1137     O1139   2.437       .  S
Zr1137     O1161   2.438       .  S
Zr1137     O1163   2.424       .  S
Zr1137     O1141   2.389       .  S
Zr1137     O1144   2.402       .  S
Zr1138     O1164   2.437       .  S
Zr1138     O1165   2.435       .  S
Zr1138     O1140   2.436       .  S
Zr1138     O1141   2.382       .  S
Zr1138     O1142   2.383       .  S
O1139      H1176   0.990       .  S
O1140      H1171   0.990       .  S
O1140      H1185   0.990       .  S
O1142      H1168   0.965       .  S
O1143     Zr1153   2.378       .  S
O1144     Zr1153   2.380       .  S
O1144      H1169   0.966       .  S
C1145      C2784   1.479       .  S
C1146      C2685   1.489       .  S
C1147      C2916   1.484       .  S
O1148      H1184   0.990       .  S
O1149      C1151   1.284       .  A
O1150      C1151   1.286       .  A
C1151      C2663   1.483       .  S
O1152     Zr1153   2.439       .  S
O1152      H1181   0.990       .  S
Zr1153     O1156   2.439       .  S
Zr1153     O1157   2.438       .  S
Zr1153     O1158   2.407       .  S
O1154      C1159   1.287       .  A
O1155      H1172   0.990       .  S
O1155      H1187   0.990       .  S
O1156      H1173   0.990       .  S
O1157      H1177   0.990       .  S
O1157      H1186   0.990       .  S
O1158      C1159   1.280       .  A
C1159      C2762   1.487       .  S
O1160      H1179   0.991       .  S
O1160      H1183   0.990       .  S
O1161      H1175   0.990       .  S
O1161      H1182   0.990       .  S
O1162      C1166   1.286       .  A
O1163      C1166   1.284       .  A
O1164      H1174   0.990       .  S
O1165      H1178   0.990       .  S
C1166      C2641   1.484       .  S
Zr1189     O1190   2.442       .  S
Zr1189     O1191   2.444       .  S
Zr1189     O1192   2.463       .  S
Zr1189     O1195   2.437       .  S
Zr1189     O1197   2.385       .  S
Zr1189     O1198   2.387       .  S
Zr1189     O1199   2.408       .  S
Zr1189     O1200   2.408       .  S
O1190      H1246   0.990       .  S
O1190      H1254   0.990       .  S
O1191      C1211   1.285       .  A
O1192      C1213   1.288       .  A
O1193     Zr1203   2.438       .  S
O1193      C1212   1.286       .  A
O1194     Zr1202   2.410       .  S
O1194      C1213   1.281       .  A
O1195      C1212   1.286       .  A
O1196     Zr1204   2.408       .  S
O1196      C1211   1.279       .  A
O1197     Zr1202   2.402       .  S
O1197     Zr1204   2.384       .  S
O1198     Zr1203   2.392       .  S
O1198     Zr1204   2.374       .  S
O1198      H1233   0.966       .  S
O1199     Zr1202   2.396       .  S
O1199     Zr1219   2.384       .  S
O1199      H1236   0.965       .  S
O1200     Zr1203   2.388       .  S
O1200     Zr1219   2.390       .  S
Zr1201     O1226   2.442       .  S
Zr1201     O1220   2.449       .  S
Zr1201     O1228   2.437       .  S
Zr1201     O1216   2.454       .  S
Zr1201     O1207   2.409       .  S
Zr1201     O1208   2.415       .  S
Zr1201     O1209   2.375       .  S
Zr1201     O1210   2.388       .  S
Zr1202     O1221   2.436       .  S
Zr1202     O1214   2.434       .  S
Zr1202     O1215   2.415       .  S
Zr1202     O1208   2.400       .  S
Zr1202     O1209   2.385       .  S
Zr1203     O1205   2.435       .  S
Zr1203     O1227   2.438       .  S
Zr1203     O1229   2.431       .  S
Zr1203     O1207   2.393       .  S
Zr1203     O1210   2.393       .  S
Zr1204     O1230   2.437       .  S
Zr1204     O1231   2.435       .  S
Zr1204     O1206   2.437       .  S
Zr1204     O1207   2.392       .  S
Zr1204     O1208   2.386       .  S
O1205      H1242   0.990       .  S
O1206      H1237   0.990       .  S
O1206      H1251   0.990       .  S
O1208      H1234   0.965       .  S
O1209     Zr1219   2.382       .  S
O1210     Zr1219   2.381       .  S
O1210      H1235   0.967       .  S
C1211      C2597   1.482       .  S
C1212      C2696   1.490       .  S
C1213      C2850   1.480       .  S
O1214      H1250   0.990       .  S
O1215      C1217   1.281       .  A
O1216      C1217   1.287       .  A
C1217      C3224   1.483       .  S
O1218     Zr1219   2.439       .  S
O1218      H1247   0.990       .  S
Zr1219     O1222   2.439       .  S
Zr1219     O1223   2.441       .  S
Zr1219     O1224   2.401       .  S
O1220      C1225   1.286       .  A
O1221      H1238   0.990       .  S
O1221      H1253   0.990       .  S
O1222      H1239   0.990       .  S
O1223      H1243   0.990       .  S
O1223      H1252   0.989       .  S
O1224      C1225   1.278       .  A
C1225      C2619   1.484       .  S
O1226      H1245   0.990       .  S
O1226      H1249   0.991       .  S
O1227      H1241   0.990       .  S
O1227      H1248   0.990       .  S
O1228      C1232   1.286       .  A
O1229      C1232   1.285       .  A
O1230      H1240   0.990       .  S
O1231      H1244   0.990       .  S
C1232      C3917   1.486       .  S
Zr1255     O1256   2.442       .  S
Zr1255     O1257   2.452       .  S
Zr1255     O1258   2.465       .  S
Zr1255     O1261   2.437       .  S
Zr1255     O1263   2.383       .  S
Zr1255     O1264   2.386       .  S
Zr1255     O1265   2.413       .  S
Zr1255     O1266   2.412       .  S
O1256      H1312   0.990       .  S
O1256      H1320   0.990       .  S
O1257      C1277   1.287       .  A
O1258      C1279   1.288       .  A
O1259     Zr1269   2.438       .  S
O1259      C1278   1.286       .  A
O1260     Zr1268   2.408       .  S
O1260      C1279   1.280       .  A
O1261      C1278   1.286       .  A
O1262     Zr1270   2.402       .  S
O1262      C1277   1.279       .  A
O1263     Zr1268   2.396       .  S
O1263     Zr1270   2.384       .  S
O1264     Zr1269   2.393       .  S
O1264     Zr1270   2.377       .  S
O1264      H1299   0.966       .  S
O1265     Zr1268   2.401       .  S
O1265     Zr1285   2.385       .  S
O1265      H1302   0.964       .  S
O1266     Zr1269   2.391       .  S
O1266     Zr1285   2.392       .  S
Zr1267     O1292   2.441       .  S
Zr1267     O1286   2.444       .  S
Zr1267     O1294   2.435       .  S
Zr1267     O1282   2.452       .  S
Zr1267     O1273   2.402       .  S
Zr1267     O1274   2.409       .  S
Zr1267     O1275   2.375       .  S
Zr1267     O1276   2.390       .  S
Zr1268     O1287   2.437       .  S
Zr1268     O1280   2.436       .  S
Zr1268     O1281   2.422       .  S
Zr1268     O1274   2.395       .  S
Zr1268     O1275   2.393       .  S
Zr1269     O1271   2.436       .  S
Zr1269     O1293   2.439       .  S
Zr1269     O1295   2.422       .  S
Zr1269     O1273   2.393       .  S
Zr1269     O1276   2.398       .  S
Zr1270     O1296   2.436       .  S
Zr1270     O1297   2.436       .  S
Zr1270     O1272   2.437       .  S
Zr1270     O1273   2.384       .  S
Zr1270     O1274   2.383       .  S
O1271      H1308   0.990       .  S
O1272      H1303   0.990       .  S
O1272      H1317   0.990       .  S
O1274      H1300   0.965       .  S
O1275     Zr1285   2.384       .  S
O1276     Zr1285   2.375       .  S
O1276      H1301   0.966       .  S
C1277      C2630   1.484       .  S
C1278      C2806   1.491       .  S
C1279      C2828   1.484       .  S
O1280      H1316   0.990       .  S
O1281      C1283   1.283       .  A
O1282      C1283   1.287       .  A
C1283      C3158   1.484       .  S
O1284     Zr1285   2.438       .  S
O1284      H1313   0.990       .  S
Zr1285     O1288   2.438       .  S
Zr1285     O1289   2.440       .  S
Zr1285     O1290   2.402       .  S
O1286      C1291   1.285       .  A
O1287      H1304   0.990       .  S
O1287      H1319   0.990       .  S
O1288      H1305   0.990       .  S
O1289      H1309   0.990       .  S
O1289      H1318   0.990       .  S
O1290      C1291   1.278       .  A
C1291      C2608   1.480       .  S
O1292      H1311   0.990       .  S
O1292      H1315   0.990       .  S
O1293      H1307   0.990       .  S
O1293      H1314   0.990       .  S
O1294      C1298   1.285       .  A
O1295      C1298   1.284       .  A
O1296      H1306   0.990       .  S
O1297      H1310   0.990       .  S
C1298      C3862   1.482       .  S
Zr1321     O1322   2.442       .  S
Zr1321     O1323   2.452       .  S
Zr1321     O1324   2.451       .  S
Zr1321     O1327   2.457       .  S
Zr1321     O1329   2.388       .  S
Zr1321     O1330   2.381       .  S
Zr1321     O1331   2.417       .  S
Zr1321     O1332   2.396       .  S
O1322      H1378   0.990       .  S
O1322      H1386   0.990       .  S
O1323      C1343   1.287       .  A
O1324      C1345   1.287       .  A
O1325     Zr1335   2.419       .  S
O1325      C1344   1.283       .  A
O1326     Zr1334   2.425       .  S
O1326      C1345   1.284       .  A
O1327      C1344   1.289       .  A
O1328     Zr1336   2.409       .  S
O1328      C1343   1.280       .  A
O1329     Zr1334   2.401       .  S
O1329     Zr1336   2.377       .  S
O1330     Zr1335   2.393       .  S
O1330     Zr1336   2.383       .  S
O1330      H1365   0.966       .  S
O1331     Zr1334   2.406       .  S
O1331     Zr1351   2.395       .  S
O1331      H1368   0.966       .  S
O1332     Zr1335   2.379       .  S
O1332     Zr1351   2.379       .  S
Zr1333     O1358   2.443       .  S
Zr1333     O1352   2.446       .  S
Zr1333     O1360   2.459       .  S
Zr1333     O1348   2.438       .  S
Zr1333     O1339   2.393       .  S
Zr1333     O1340   2.415       .  S
Zr1333     O1341   2.381       .  S
Zr1333     O1342   2.385       .  S
Zr1334     O1353   2.437       .  S
Zr1334     O1346   2.435       .  S
Zr1334     O1347   2.438       .  S
Zr1334     O1340   2.397       .  S
Zr1334     O1341   2.389       .  S
Zr1335     O1337   2.436       .  S
Zr1335     O1359   2.438       .  S
Zr1335     O1361   2.409       .  S
Zr1335     O1339   2.388       .  S
Zr1335     O1342   2.393       .  S
Zr1336     O1362   2.434       .  S
Zr1336     O1363   2.435       .  S
Zr1336     O1338   2.439       .  S
Zr1336     O1339   2.387       .  S
Zr1336     O1340   2.396       .  S
O1337      H1374   0.990       .  S
O1338      H1369   0.990       .  S
O1338      H1383   0.990       .  S
O1340      H1366   0.965       .  S
O1341     Zr1351   2.377       .  S
O1342     Zr1351   2.386       .  S
O1342      H1367   0.967       .  S
C1343      C2542   1.487       .  S
C1344      C2718   1.489       .  S
C1345      C2520   1.487       .  S
O1346      H1382   0.990       .  S
O1347      C1349   1.286       .  A
O1348      C1349   1.284       .  A
C1349      C2586   1.485       .  S
O1350     Zr1351   2.439       .  S
O1350      H1379   0.990       .  S
Zr1351     O1354   2.437       .  S
Zr1351     O1355   2.440       .  S
Zr1351     O1356   2.404       .  S
O1352      C1357   1.285       .  A
O1353      H1370   0.990       .  S
O1353      H1385   0.990       .  S
O1354      H1371   0.990       .  S
O1355      H1375   0.990       .  S
O1355      H1384   0.990       .  S
O1356      C1357   1.280       .  A
C1357      C2564   1.484       .  S
O1358      H1377   0.991       .  S
O1358      H1381   0.991       .  S
O1359      H1373   0.990       .  S
O1359      H1380   0.990       .  S
O1360      C1364   1.289       .  A
O1361      C1364   1.282       .  A
O1362      H1372   0.990       .  S
O1363      H1376   0.990       .  S
C1364      C3906   1.484       .  S
Zr1387     O1388   2.443       .  S
Zr1387     O1389   2.443       .  S
Zr1387     O1390   2.445       .  S
Zr1387     O1393   2.445       .  S
Zr1387     O1395   2.388       .  S
Zr1387     O1396   2.385       .  S
Zr1387     O1397   2.413       .  S
Zr1387     O1398   2.401       .  S
O1388      H1444   0.990       .  S
O1388      H1452   0.991       .  S
O1389      C1409   1.285       .  A
O1390      C1411   1.285       .  A
O1391     Zr1401   2.411       .  S
O1391      C1410   1.282       .  A
O1392     Zr1400   2.427       .  S
O1392      C1411   1.284       .  A
O1393      C1410   1.287       .  A
O1394     Zr1402   2.409       .  S
O1394      C1409   1.280       .  A
O1395     Zr1400   2.399       .  S
O1395     Zr1402   2.374       .  S
O1396     Zr1401   2.392       .  S
O1396     Zr1402   2.382       .  S
O1396      H1431   0.966       .  S
O1397     Zr1400   2.406       .  S
O1397     Zr1417   2.385       .  S
O1397      H1434   0.965       .  S
O1398     Zr1401   2.381       .  S
O1398     Zr1417   2.385       .  S
Zr1399     O1424   2.441       .  S
Zr1399     O1418   2.460       .  S
Zr1399     O1426   2.470       .  S
Zr1399     O1414   2.450       .  S
Zr1399     O1405   2.400       .  S
Zr1399     O1406   2.417       .  S
Zr1399     O1407   2.383       .  S
Zr1399     O1408   2.389       .  S
Zr1400     O1419   2.437       .  S
Zr1400     O1412   2.434       .  S
Zr1400     O1413   2.439       .  S
Zr1400     O1406   2.397       .  S
Zr1400     O1407   2.392       .  S
Zr1401     O1403   2.436       .  S
Zr1401     O1425   2.438       .  S
Zr1401     O1427   2.405       .  S
Zr1401     O1405   2.386       .  S
Zr1401     O1408   2.392       .  S
Zr1402     O1428   2.434       .  S
Zr1402     O1429   2.435       .  S
Zr1402     O1404   2.437       .  S
Zr1402     O1405   2.391       .  S
Zr1402     O1406   2.389       .  S
O1403      H1440   0.990       .  S
O1404      H1435   0.990       .  S
O1404      H1449   0.990       .  S
O1406      H1432   0.965       .  S
O1407     Zr1417   2.380       .  S
O1408     Zr1417   2.386       .  S
O1408      H1433   0.966       .  S
C1409      C2553   1.483       .  S
C1410      C2652   1.482       .  S
C1411      C2476   1.484       .  S
O1412      H1448   0.990       .  S
O1413      C1415   1.286       .  A
O1414      C1415   1.287       .  A
C1415      C2487   1.493       .  S
O1416     Zr1417   2.439       .  S
O1416      H1445   0.990       .  S
Zr1417     O1420   2.437       .  S
Zr1417     O1421   2.439       .  S
Zr1417     O1422   2.400       .  S
O1418      C1423   1.289       .  A
O1419      H1436   0.990       .  S
O1419      H1451   0.990       .  S
O1420      H1437   0.990       .  S
O1421      H1441   0.990       .  S
O1421      H1450   0.990       .  S
O1422      C1423   1.279       .  A
C1423      C2531   1.487       .  S
O1424      H1443   0.991       .  S
O1424      H1447   0.990       .  S
O1425      H1439   0.990       .  S
O1425      H1446   0.990       .  S
O1426      C1430   1.291       .  A
O1427      C1430   1.280       .  A
O1428      H1438   0.990       .  S
O1429      H1442   0.990       .  S
C1430      C3840   1.485       .  S
Zr1453     O1454   2.441       .  S
Zr1453     O1455   2.455       .  S
Zr1453     O1456   2.453       .  S
Zr1453     O1459   2.436       .  S
Zr1453     O1461   2.385       .  S
Zr1453     O1462   2.383       .  S
Zr1453     O1463   2.415       .  S
Zr1453     O1464   2.408       .  S
O1454      H1510   0.990       .  S
O1454      H1518   0.990       .  S
O1455      C1475   1.287       .  A
O1456      C1477   1.287       .  A
O1457     Zr1467   2.425       .  S
O1457      C1476   1.284       .  A
O1458     Zr1466   2.427       .  S
O1458      C1477   1.284       .  A
O1459      C1476   1.285       .  A
O1460     Zr1468   2.411       .  S
O1460      C1475   1.280       .  A
O1461     Zr1466   2.400       .  S
O1461     Zr1468   2.377       .  S
O1462     Zr1467   2.391       .  S
O1462     Zr1468   2.380       .  S
O1462      H1497   0.967       .  S
O1463     Zr1466   2.402       .  S
O1463     Zr1483   2.395       .  S
O1463      H1500   0.967       .  S
O1464     Zr1467   2.383       .  S
O1464     Zr1483   2.389       .  S
Zr1465     O1490   2.441       .  S
Zr1465     O1484   2.453       .  S
Zr1465     O1492   2.457       .  S
Zr1465     O1480   2.454       .  S
Zr1465     O1471   2.400       .  S
Zr1465     O1472   2.415       .  S
Zr1465     O1473   2.384       .  S
Zr1465     O1474   2.391       .  S
Zr1466     O1485   2.436       .  S
Zr1466     O1478   2.435       .  S
Zr1466     O1479   2.434       .  S
Zr1466     O1472   2.399       .  S
Zr1466     O1473   2.393       .  S
Zr1467     O1469   2.436       .  S
Zr1467     O1491   2.438       .  S
Zr1467     O1493   2.413       .  S
Zr1467     O1471   2.387       .  S
Zr1467     O1474   2.393       .  S
Zr1468     O1494   2.436       .  S
Zr1468     O1495   2.435       .  S
Zr1468     O1470   2.438       .  S
Zr1468     O1471   2.384       .  S
Zr1468     O1472   2.392       .  S
O1469      H1506   0.990       .  S
O1470      H1501   0.990       .  S
O1470      H1515   0.990       .  S
O1472      H1498   0.965       .  S
O1473     Zr1483   2.384       .  S
O1474     Zr1483   2.383       .  S
O1474      H1499   0.967       .  S
C1475      C2432   1.489       .  S
C1476      C2927   1.485       .  S
C1477      C3642   1.489       .  S
O1478      H1514   0.990       .  S
O1479      C1481   1.285       .  A
O1480      C1481   1.288       .  A
C1481      C2575   1.492       .  S
O1482     Zr1483   2.439       .  S
O1482      H1511   0.990       .  S
Zr1483     O1486   2.436       .  S
Zr1483     O1487   2.442       .  S
Zr1483     O1488   2.405       .  S
O1484      C1489   1.287       .  A
O1485      H1502   0.990       .  S
O1485      H1517   0.990       .  S
O1486      H1503   0.990       .  S
O1487      H1507   0.990       .  S
O1487      H1516   0.990       .  S
O1488      C1489   1.279       .  A
C1489      C2454   1.486       .  S
O1490      H1509   0.991       .  S
O1490      H1513   0.990       .  S
O1491      H1505   0.990       .  S
O1491      H1512   0.990       .  S
O1492      C1496   1.288       .  A
O1493      C1496   1.281       .  A
O1494      H1504   0.990       .  S
O1495      H1508   0.990       .  S
C1496      C4104   1.481       .  S
Zr1519     O1520   2.443   1_556  S
Zr1519     O1521   2.450   1_556  S
Zr1519     O1522   2.452       .  S
Zr1519     O1525   2.460       .  S
Zr1519     O1527   2.391       .  S
Zr1519     O1528   2.385       .  S
Zr1519     O1529   2.417       .  S
Zr1519     O1530   2.400       .  S
O1520      H1576   0.990       .  S
O1520      H1584   0.991   1_554  S
O1521      C1541   1.287       .  A
O1522      C1543   1.287       .  A
O1523     Zr1533   2.421       .  S
O1523      C1542   1.283       .  A
O1524     Zr1532   2.426       .  S
O1524      C1543   1.284       .  A
O1525      C1542   1.290       .  A
O1526     Zr1534   2.399   1_554  S
O1526      C1541   1.278       .  A
O1527     Zr1532   2.399       .  S
O1527     Zr1534   2.381       .  S
O1528     Zr1533   2.391       .  S
O1528     Zr1534   2.386       .  S
O1528      H1563   0.965   1_556  S
O1529     Zr1532   2.408       .  S
O1529     Zr1549   2.391       .  S
O1529      H1566   0.965       .  S
O1530     Zr1533   2.381       .  S
O1530     Zr1549   2.387       .  S
Zr1531     O1556   2.442       .  S
Zr1531     O1550   2.443       .  S
Zr1531     O1558   2.460       .  S
Zr1531     O1546   2.453       .  S
Zr1531     O1537   2.397       .  S
Zr1531     O1538   2.415       .  S
Zr1531     O1539   2.382       .  S
Zr1531     O1540   2.391       .  S
Zr1532     O1551   2.437       .  S
Zr1532     O1544   2.435       .  S
Zr1532     O1545   2.442       .  S
Zr1532     O1538   2.400       .  S
Zr1532     O1539   2.395       .  S
Zr1533     O1535   2.435       .  S
Zr1533     O1557   2.440       .  S
Zr1533     O1559   2.407       .  S
Zr1533     O1537   2.390       .  S
Zr1533     O1540   2.394       .  S
Zr1534     O1560   2.435   1_556  S
Zr1534     O1561   2.436       .  S
Zr1534     O1536   2.437   1_556  S
Zr1534     O1537   2.383       .  S
Zr1534     O1538   2.388       .  S
O1535      H1572   0.990       .  S
O1536      H1567   0.990       .  S
O1536      H1581   0.990       .  S
O1538      H1564   0.965       .  S
O1539     Zr1549   2.380       .  S
O1540     Zr1549   2.382       .  S
O1540      H1565   0.966       .  S
C1541      C2443   1.483       .  S
C1542      C3015   1.492   1_556  S
C1543      C3719   1.487       .  S
O1544      H1580   0.990       .  S
O1545      C1547   1.287       .  A
O1546      C1547   1.287       .  A
C1547      C2498   1.493       .  S
O1548     Zr1549   2.439       .  S
O1548      H1577   0.990       .  S
Zr1549     O1552   2.437       .  S
Zr1549     O1553   2.439       .  S
Zr1549     O1554   2.404       .  S
O1550      C1555   1.285       .  A
O1551      H1568   0.990       .  S
O1551      H1583   0.990       .  S
O1552      H1569   0.990       .  S
O1553      H1573   0.990       .  S
O1553      H1582   0.990       .  S
O1554      C1555   1.279       .  A
C1555      C2421   1.483       .  S
O1556      H1575   0.990       .  S
O1556      H1579   0.991       .  S
O1557      H1571   0.990       .  S
O1557      H1578   0.990   1_556  S
O1558      C1562   1.290       .  A
O1559      C1562   1.281       .  A
O1560      H1570   0.990       .  S
O1561      H1574   0.990       .  S
C1562      C4016   1.480       .  S
Zr1585     O1586   2.442       .  S
Zr1585     O1587   2.449       .  S
Zr1585     O1588   2.454       .  S
Zr1585     O1591   2.450       .  S
Zr1585     O1593   2.385       .  S
Zr1585     O1594   2.384       .  S
Zr1585     O1595   2.414       .  S
Zr1585     O1596   2.400       .  S
O1586      H1642   0.990       .  S
O1586      H1650   0.990       .  S
O1587      C1607   1.285       .  A
O1588      C1609   1.287       .  A
O1589     Zr1599   2.425       .  S
O1589      C1608   1.284       .  A
O1590     Zr1598   2.429       .  S
O1590      C1609   1.284       .  A
O1591      C1608   1.288       .  A
O1592     Zr1600   2.412       .  S
O1592      C1607   1.280       .  A
O1593     Zr1598   2.401       .  S
O1593     Zr1600   2.376       .  S
O1594     Zr1599   2.393       .  S
O1594     Zr1600   2.384       .  S
O1594      H1629   0.966       .  S
O1595     Zr1598   2.408       .  S
O1595     Zr1615   2.393       .  S
O1595      H1632   0.966       .  S
O1596     Zr1599   2.390       .  S
O1596     Zr1615   2.385       .  S
Zr1597     O1622   2.443       .  S
Zr1597     O1616   2.456       .  S
Zr1597     O1624   2.449       .  S
Zr1597     O1612   2.420       .  S
Zr1597     O1603   2.396       .  S
Zr1597     O1604   2.420       .  S
Zr1597     O1605   2.379       .  S
Zr1597     O1606   2.382       .  S
Zr1598     O1617   2.437       .  S
Zr1598     O1610   2.436       .  S
Zr1598     O1611   2.441       .  S
Zr1598     O1604   2.399       .  S
Zr1598     O1605   2.393       .  S
Zr1599     O1601   2.436       .  S
Zr1599     O1623   2.440       .  S
Zr1599     O1625   2.420       .  S
Zr1599     O1603   2.385       .  S
Zr1599     O1606   2.398       .  S
Zr1600     O1626   2.434       .  S
Zr1600     O1627   2.435       .  S
Zr1600     O1602   2.437       .  S
Zr1600     O1603   2.391       .  S
Zr1600     O1604   2.392       .  S
O1601      H1638   0.990       .  S
O1602      H1633   0.990       .  S
O1602      H1647   0.990       .  S
O1604      H1630   0.965       .  S
O1605     Zr1615   2.376       .  S
O1606     Zr1615   2.388       .  S
O1606      H1631   0.969       .  S
C1607      C2355   1.485       .  S
C1608      C3664   1.488       .  S
C1609      C2949   1.488       .  S
O1610      H1646   0.990       .  S
O1611      C1613   1.287       .  A
O1612      C1613   1.281       .  A
C1613      C2399   1.481       .  S
O1614     Zr1615   2.438       .  S
O1614      H1643   0.991       .  S
Zr1615     O1618   2.438       .  S
Zr1615     O1619   2.439       .  S
Zr1615     O1620   2.399       .  S
O1616      C1621   1.287       .  A
O1617      H1634   0.990       .  S
O1617      H1649   0.990       .  S
O1618      H1635   0.990       .  S
O1619      H1639   0.990       .  S
O1619      H1648   0.990       .  S
O1620      C1621   1.278       .  A
C1621      C2388   1.485       .  S
O1622      H1641   0.991       .  S
O1622      H1645   0.990       .  S
O1623      H1637   0.990       .  S
O1623      H1644   0.990       .  S
O1624      C1628   1.287       .  A
O1625      C1628   1.283       .  A
O1626      H1636   0.990       .  S
O1627      H1640   0.990       .  S
C1628      C3378   1.482       .  S
Zr1651     O1652   2.443   1_556  S
Zr1651     O1653   2.441   1_556  S
Zr1651     O1654   2.454       .  S
Zr1651     O1657   2.448       .  S
Zr1651     O1659   2.386       .  S
Zr1651     O1660   2.385       .  S
Zr1651     O1661   2.411       .  S
Zr1651     O1662   2.402       .  S
O1652      H1708   0.991       .  S
O1652      H1716   0.991   1_554  S
O1653      C1673   1.284       .  A
O1654      C1675   1.287       .  A
O1655     Zr1665   2.422       .  S
O1655      C1674   1.283       .  A
O1656     Zr1664   2.428       .  S
O1656      C1675   1.284       .  A
O1657      C1674   1.288       .  A
O1658     Zr1666   2.404   1_554  S
O1658      C1673   1.279       .  A
O1659     Zr1664   2.400       .  S
O1659     Zr1666   2.384       .  S
O1660     Zr1665   2.391       .  S
O1660     Zr1666   2.383       .  S
O1660      H1695   0.966   1_556  S
O1661     Zr1664   2.405       .  S
O1661     Zr1681   2.392       .  S
O1661      H1698   0.965       .  S
O1662     Zr1665   2.384       .  S
O1662     Zr1681   2.386       .  S
Zr1663     O1688   2.441       .  S
Zr1663     O1682   2.441       .  S
Zr1663     O1690   2.454       .  S
Zr1663     O1678   2.452       .  S
Zr1663     O1669   2.396       .  S
Zr1663     O1670   2.411       .  S
Zr1663     O1671   2.378       .  S
Zr1663     O1672   2.391       .  S
Zr1664     O1683   2.439       .  S
Zr1664     O1676   2.434       .  S
Zr1664     O1677   2.433       .  S
Zr1664     O1670   2.400       .  S
Zr1664     O1671   2.395       .  S
Zr1665     O1667   2.436       .  S
Zr1665     O1689   2.438       .  S
Zr1665     O1691   2.411       .  S
Zr1665     O1669   2.385       .  S
Zr1665     O1672   2.395       .  S
Zr1666     O1692   2.436   1_556  S
Zr1666     O1693   2.437       .  S
Zr1666     O1668   2.435   1_556  S
Zr1666     O1669   2.377       .  S
Zr1666     O1670   2.393       .  S
O1667      H1704   0.990       .  S
O1668      H1699   0.990       .  S
O1668      H1713   0.990       .  S
O1670      H1696   0.965       .  S
O1671     Zr1681   2.380       .  S
O1672     Zr1681   2.381       .  S
O1672      H1697   0.967       .  S
C1673      C2377   1.481       .  S
C1674      C3741   1.487       .  S
C1675      C3048   1.488       .  S
O1676      H1712   0.990       .  S
O1677      C1679   1.285       .  A
O1678      C1679   1.287       .  A
C1679      C2344   1.490       .  S
O1680     Zr1681   2.438       .  S
O1680      H1709   0.990       .  S
Zr1681     O1684   2.436       .  S
Zr1681     O1685   2.440       .  S
Zr1681     O1686   2.410       .  S
O1682      C1687   1.285       .  A
O1683      H1700   0.990       .  S
O1683      H1715   0.990       .  S
O1684      H1701   0.990       .  S
O1685      H1705   0.990       .  S
O1685      H1714   0.990       .  S
O1686      C1687   1.280       .  A
C1687      C2366   1.484       .  S
O1688      H1707   0.991       .  S
O1688      H1711   0.990       .  S
O1689      H1703   0.990       .  S
O1689      H1710   0.990       .  S
O1690      C1694   1.288       .  A
O1691      C1694   1.282       .  A
O1692      H1702   0.990       .  S
O1693      H1706   0.990       .  S
C1694      C3301   1.481       .  S
Zr1717     O1718   2.444       .  S
Zr1717     O1719   2.461       .  S
Zr1717     O1720   2.459       .  S
Zr1717     O1723   2.451       .  S
Zr1717     O1725   2.388       .  S
Zr1717     O1726   2.386       .  S
Zr1717     O1727   2.416       .  S
Zr1717     O1728   2.405       .  S
O1718      H1774   0.991       .  S
O1718      H1782   0.991       .  S
O1719      C1739   1.288       .  A
O1720      C1741   1.288       .  A
O1721     Zr1731   2.414       .  S
O1721      C1740   1.282       .  A
O1722     Zr1730   2.426       .  S
O1722      C1741   1.283       .  A
O1723      C1740   1.288       .  A
O1724     Zr1732   2.407       .  S
O1724      C1739   1.280       .  A
O1725     Zr1730   2.402       .  S
O1725     Zr1732   2.382       .  S
O1726     Zr1731   2.388       .  S
O1726     Zr1732   2.383       .  S
O1726      H1761   0.966       .  S
O1727     Zr1730   2.408       .  S
O1727     Zr1747   2.394       .  S
O1727      H1764   0.966       .  S
O1728     Zr1731   2.390       .  S
O1728     Zr1747   2.390       .  S
Zr1729     O1754   2.442       .  S
Zr1729     O1748   2.440       .  S
Zr1729     O1756   2.448       .  S
Zr1729     O1744   2.425       .  S
Zr1729     O1735   2.390       .  S
Zr1729     O1736   2.411       .  S
Zr1729     O1737   2.380       .  S
Zr1729     O1738   2.384       .  S
Zr1730     O1749   2.438       .  S
Zr1730     O1742   2.434       .  S
Zr1730     O1743   2.432       .  S
Zr1730     O1736   2.401       .  S
Zr1730     O1737   2.394       .  S
Zr1731     O1733   2.435       .  S
Zr1731     O1755   2.438       .  S
Zr1731     O1757   2.414       .  S
Zr1731     O1735   2.385       .  S
Zr1731     O1738   2.394       .  S
Zr1732     O1758   2.435       .  S
Zr1732     O1759   2.435       .  S
Zr1732     O1734   2.438       .  S
Zr1732     O1735   2.383       .  S
Zr1732     O1736   2.388       .  S
O1733      H1770   0.990       .  S
O1734      H1765   0.990       .  S
O1734      H1779   0.990       .  S
O1736      H1762   0.965       .  S
O1737     Zr1747   2.374       .  S
O1738     Zr1747   2.382       .  S
O1738      H1763   0.966       .  S
C1739      C2300   1.487       .  S
C1740      C2267   1.482       .  S
C1741      C2729   1.489       .  S
O1742      H1778   0.990       .  S
O1743      C1745   1.285       .  A
O1744      C1745   1.282       .  A
C1745      C2410   1.481       .  S
O1746     Zr1747   2.438       .  S
O1746      H1775   0.991       .  S
Zr1747     O1750   2.437       .  S
Zr1747     O1751   2.439       .  S
Zr1747     O1752   2.405       .  S
O1748      C1753   1.284       .  A
O1749      H1766   0.990       .  S
O1749      H1781   0.990       .  S
O1750      H1767   0.990       .  S
O1751      H1771   0.990       .  S
O1751      H1780   0.990       .  S
O1752      C1753   1.279       .  A
C1753      C2311   1.482       .  S
O1754      H1773   0.991       .  S
O1754      H1777   0.990       .  S
O1755      H1769   0.990       .  S
O1755      H1776   0.990       .  S
O1756      C1760   1.287       .  A
O1757      C1760   1.282       .  A
O1758      H1768   0.990       .  S
O1759      H1772   0.990       .  S
C1760      C3202   1.482       .  S
Zr1783     O1784   2.443       .  S
Zr1783     O1785   2.446       .  S
Zr1783     O1786   2.455       .  S
Zr1783     O1789   2.459       .  S
Zr1783     O1791   2.391       .  S
Zr1783     O1792   2.385       .  S
Zr1783     O1793   2.415       .  S
Zr1783     O1794   2.400       .  S
O1784      H1840   0.990       .  S
O1784      H1848   0.990       .  S
O1785      C1805   1.285       .  A
O1786      C1807   1.287       .  A
O1787     Zr1797   2.428       .  S
O1787      C1806   1.284       .  A
O1788     Zr1796   2.425       .  S
O1788      C1807   1.284       .  A
O1789      C1806   1.289       .  A
O1790     Zr1798   2.404       .  S
O1790      C1805   1.279       .  A
O1791     Zr1796   2.403       .  S
O1791     Zr1798   2.379       .  S
O1792     Zr1797   2.388       .  S
O1792     Zr1798   2.386       .  S
O1792      H1827   0.965       .  S
O1793     Zr1796   2.404       .  S
O1793     Zr1813   2.389       .  S
O1793      H1830   0.965       .  S
O1794     Zr1797   2.383       .  S
O1794     Zr1813   2.387       .  S
Zr1795     O1820   2.441       .  S
Zr1795     O1814   2.448       .  S
Zr1795     O1822   2.452       .  S
Zr1795     O1810   2.444       .  S
Zr1795     O1801   2.396       .  S
Zr1795     O1802   2.412       .  S
Zr1795     O1803   2.380       .  S
Zr1795     O1804   2.387       .  S
Zr1796     O1815   2.436       .  S
Zr1796     O1808   2.435       .  S
Zr1796     O1809   2.440       .  S
Zr1796     O1802   2.398       .  S
Zr1796     O1803   2.391       .  S
Zr1797     O1799   2.436       .  S
Zr1797     O1821   2.438       .  S
Zr1797     O1823   2.412       .  S
Zr1797     O1801   2.391       .  S
Zr1797     O1804   2.394       .  S
Zr1798     O1824   2.435       .  S
Zr1798     O1825   2.438       .  S
Zr1798     O1800   2.438       .  S
Zr1798     O1801   2.384       .  S
Zr1798     O1802   2.388       .  S
O1799      H1836   0.990       .  S
O1800      H1831   0.990       .  S
O1800      H1845   0.990       .  S
O1802      H1828   0.965       .  S
O1803     Zr1813   2.379       .  S
O1804     Zr1813   2.382       .  S
O1804      H1829   0.966       .  S
C1805      C2322   1.482       .  S
C1806      C2245   1.491       .  S
C1807      C2674   1.487       .  S
O1808      H1844   0.990       .  S
O1809      C1811   1.286       .  A
O1810      C1811   1.286       .  A
C1811      C2333   1.491       .  S
O1812     Zr1813   2.439       .  S
O1812      H1841   0.990       .  S
Zr1813     O1816   2.437       .  S
Zr1813     O1817   2.440       .  S
Zr1813     O1818   2.407       .  S
O1814      C1819   1.286       .  A
O1815      H1832   0.990       .  S
O1815      H1847   0.990       .  S
O1816      H1833   0.990       .  S
O1817      H1837   0.990       .  S
O1817      H1846   0.990       .  S
O1818      C1819   1.280       .  A
C1819      C2289   1.486       .  S
O1820      H1839   0.991       .  S
O1820      H1843   0.990       .  S
O1821      H1835   0.990       .  S
O1821      H1842   0.990       .  S
O1822      C1826   1.288       .  A
O1823      C1826   1.282       .  A
O1824      H1834   0.990       .  S
O1825      H1838   0.990       .  S
C1826      C3125   1.479       .  S
Zr1849     O1850   2.442   1_554  S
Zr1849     O1851   2.443   1_554  S
Zr1849     O1852   2.459       .  S
Zr1849     O1855   2.439       .  S
Zr1849     O1857   2.382       .  S
Zr1849     O1858   2.387       .  S
Zr1849     O1859   2.414       .  S
Zr1849     O1860   2.408       .  S
O1850      H1906   0.990       .  S
O1850      H1914   0.990   1_556  S
O1851      C1871   1.285       .  A
O1852      C1873   1.288       .  A
O1853     Zr1863   2.435       .  S
O1853      C1872   1.285       .  A
O1854     Zr1862   2.412       .  S
O1854      C1873   1.281       .  A
O1855      C1872   1.286       .  A
O1856     Zr1864   2.405   1_556  S
O1856      C1871   1.279       .  A
O1857     Zr1862   2.397       .  S
O1857     Zr1864   2.382       .  S
O1858     Zr1863   2.394       .  S
O1858     Zr1864   2.379       .  S
O1858      H1893   0.966       .  S
O1859     Zr1862   2.404       .  S
O1859     Zr1879   2.386       .  S
O1859      H1896   0.964       .  S
O1860     Zr1863   2.388       .  S
O1860     Zr1879   2.395       .  S
Zr1861     O1886   2.440       .  S
Zr1861     O1880   2.440       .  S
Zr1861     O1888   2.430       .  S
Zr1861     O1876   2.459       .  S
Zr1861     O1867   2.400       .  S
Zr1861     O1868   2.403       .  S
Zr1861     O1869   2.375       .  S
Zr1861     O1870   2.390       .  S
Zr1862     O1881   2.436       .  S
Zr1862     O1874   2.436       .  S
Zr1862     O1875   2.421       .  S
Zr1862     O1868   2.393       .  S
Zr1862     O1869   2.393       .  S
Zr1863     O1865   2.435       .  S
Zr1863     O1887   2.438       .  S
Zr1863     O1889   2.425       .  S
Zr1863     O1867   2.392       .  S
Zr1863     O1870   2.396       .  S
Zr1864     O1890   2.435   1_554  S
Zr1864     O1891   2.435       .  S
Zr1864     O1866   2.438       .  S
Zr1864     O1867   2.386       .  S
Zr1864     O1868   2.384       .  S
O1865      H1902   0.990       .  S
O1866      H1897   0.990   1_554  S
O1866      H1911   0.990       .  S
O1868      H1894   0.965       .  S
O1869     Zr1879   2.384       .  S
O1870     Zr1879   2.376       .  S
O1870      H1895   0.966       .  S
C1871      C2179   1.482       .  S
C1872      C2223   1.491   1_554  S
C1873      C3697   1.480       .  S
O1874      H1910   0.990       .  S
O1875      C1877   1.283       .  A
O1876      C1877   1.288       .  A
C1877      C2509   1.487       .  S
O1878     Zr1879   2.440       .  S
O1878      H1907   0.990       .  S
Zr1879     O1882   2.437       .  S
Zr1879     O1883   2.440       .  S
Zr1879     O1884   2.414       .  S
O1880      C1885   1.285       .  A
O1881      H1898   0.990       .  S
O1881      H1913   0.990       .  S
O1882      H1899   0.990       .  S
O1883      H1903   0.990       .  S
O1883      H1912   0.990       .  S
O1884      C1885   1.281       .  A
C1885      C2201   1.485       .  S
O1886      H1905   0.990       .  S
O1886      H1909   0.990       .  S
O1887      H1901   0.990       .  S
O1887      H1908   0.990       .  S
O1888      C1892   1.285       .  A
O1889      C1892   1.285       .  A
O1890      H1900   0.990   1_556  S
O1891      H1904   0.990       .  S
C1892      C2278   1.483       .  S
Zr1915     O1916   2.442       .  S
Zr1915     O1917   2.449       .  S
Zr1915     O1918   2.460       .  S
Zr1915     O1921   2.433       .  S
Zr1915     O1923   2.384       .  S
Zr1915     O1924   2.388       .  S
Zr1915     O1925   2.409       .  S
Zr1915     O1926   2.409       .  S
O1916      H1972   0.990       .  S
O1916      H1980   0.990       .  S
O1917      C1937   1.287       .  A
O1918      C1939   1.288       .  A
O1919     Zr1929   2.440       .  S
O1919      C1938   1.286       .  A
O1920     Zr1928   2.415       .  S
O1920      C1939   1.282       .  A
O1921      C1938   1.285       .  A
O1922     Zr1930   2.401       .  S
O1922      C1937   1.278       .  A
O1923     Zr1928   2.399       .  S
O1923     Zr1930   2.381       .  S
O1924     Zr1929   2.393       .  S
O1924     Zr1930   2.376       .  S
O1924      H1959   0.966       .  S
O1925     Zr1928   2.402       .  S
O1925     Zr1945   2.381       .  S
O1925      H1962   0.965       .  S
O1926     Zr1929   2.389       .  S
O1926     Zr1945   2.393       .  S
Zr1927     O1952   2.442       .  S
Zr1927     O1946   2.446       .  S
Zr1927     O1954   2.444       .  S
Zr1927     O1942   2.452       .  S
Zr1927     O1933   2.404       .  S
Zr1927     O1934   2.413       .  S
Zr1927     O1935   2.377       .  S
Zr1927     O1936   2.390       .  S
Zr1928     O1947   2.436       .  S
Zr1928     O1940   2.434       .  S
Zr1928     O1941   2.427       .  S
Zr1928     O1934   2.399       .  S
Zr1928     O1935   2.392       .  S
Zr1929     O1931   2.434       .  S
Zr1929     O1953   2.439       .  S
Zr1929     O1955   2.426       .  S
Zr1929     O1933   2.395       .  S
Zr1929     O1936   2.396       .  S
Zr1930     O1956   2.434       .  S
Zr1930     O1957   2.437       .  S
Zr1930     O1932   2.438       .  S
Zr1930     O1933   2.391       .  S
Zr1930     O1934   2.381       .  S
O1931      H1968   0.990       .  S
O1932      H1963   0.990       .  S
O1932      H1977   0.990       .  S
O1934      H1960   0.964       .  S
O1935     Zr1945   2.382       .  S
O1936     Zr1945   2.382       .  S
O1936      H1961   0.965       .  S
C1937      C2212   1.481       .  S
C1938      C2157   1.490       .  S
C1939      C3620   1.481       .  S
O1940      H1976   0.990       .  S
O1941      C1943   1.284       .  A
O1942      C1943   1.287       .  A
C1943      C2465   1.485       .  S
O1944     Zr1945   2.439       .  S
O1944      H1973   0.990       .  S
Zr1945     O1948   2.437       .  S
Zr1945     O1949   2.440       .  S
Zr1945     O1950   2.400       .  S
O1946      C1951   1.285       .  A
O1947      H1964   0.990       .  S
O1947      H1979   0.990       .  S
O1948      H1965   0.990       .  S
O1949      H1969   0.990       .  S
O1949      H1978   0.990       .  S
O1950      C1951   1.278       .  A
C1951      C2190   1.480       .  S
O1952      H1971   0.991       .  S
O1952      H1975   0.990       .  S
O1953      H1967   0.990       .  S
O1953      H1974   0.990       .  S
O1954      C1958   1.287       .  A
O1955      C1958   1.284       .  A
O1956      H1966   0.990       .  S
O1957      H1970   0.990       .  S
C1958      C2256   1.489       .  S
Zr1981     O1982   2.442       .  S
Zr1981     O1983   2.452       .  S
Zr1981     O1984   2.466       .  S
Zr1981     O1987   2.450       .  S
Zr1981     O1989   2.386       .  S
Zr1981     O1990   2.385       .  S
Zr1981     O1991   2.417       .  S
Zr1981     O1992   2.409       .  S
O1982      H2038   0.990       .  S
O1982      H2046   0.990       .  S
O1983      C2003   1.286       .  A
O1984      C2005   1.289       .  A
O1985     Zr1995   2.430       .  S
O1985      C2004   1.284       .  A
O1986     Zr1994   2.412       .  S
O1986      C2005   1.282       .  A
O1987      C2004   1.288       .  A
O1988     Zr1996   2.391       .  S
O1988      C2003   1.277       .  A
O1989     Zr1994   2.402       .  S
O1989     Zr1996   2.380       .  S
O1990     Zr1995   2.391       .  S
O1990     Zr1996   2.377       .  S
O1990      H2025   0.966       .  S
O1991     Zr1994   2.407       .  S
O1991     Zr2011   2.387       .  S
O1991      H2028   0.964       .  S
O1992     Zr1995   2.391       .  S
O1992     Zr2011   2.395       .  S
Zr1993     O2018   2.441       .  S
Zr1993     O2012   2.443       .  S
Zr1993     O2020   2.436       .  S
Zr1993     O2008   2.451       .  S
Zr1993     O1999   2.401       .  S
Zr1993     O2000   2.408       .  S
Zr1993     O2001   2.376       .  S
Zr1993     O2002   2.388       .  S
Zr1994     O2013   2.436       .  S
Zr1994     O2006   2.434       .  S
Zr1994     O2007   2.431       .  S
Zr1994     O2000   2.396       .  S
Zr1994     O2001   2.390       .  S
Zr1995     O1997   2.434       .  S
Zr1995     O2019   2.439       .  S
Zr1995     O2021   2.420       .  S
Zr1995     O1999   2.392       .  S
Zr1995     O2002   2.395       .  S
Zr1996     O2022   2.435       .  S
Zr1996     O2023   2.436       .  S
Zr1996     O1998   2.439       .  S
Zr1996     O1999   2.387       .  S
Zr1996     O2000   2.379       .  S
O1997      H2034   0.990       .  S
O1998      H2029   0.990       .  S
O1998      H2043   0.990       .  S
O2000      H2026   0.965       .  S
O2001     Zr2011   2.385       .  S
O2002     Zr2011   2.379       .  S
O2002      H2027   0.966       .  S
C2003      C2113   1.482       .  S
C2004      C2168   1.489       .  S
C2005      C3532   1.480       .  S
O2006      H2042   0.990       .  S
O2007      C2009   1.285       .  A
O2008      C2009   1.287       .  A
C2009      C3950   1.484       .  S
O2010     Zr2011   2.440       .  S
O2010      H2039   0.991       .  S
Zr2011     O2014   2.437       .  S
Zr2011     O2015   2.441       .  S
Zr2011     O2016   2.413       .  S
O2012      C2017   1.286       .  A
O2013      H2030   0.990       .  S
O2013      H2045   0.990       .  S
O2014      H2031   0.990       .  S
O2015      H2035   0.989       .  S
O2015      H2044   0.990       .  S
O2016      C2017   1.281       .  A
C2017      C2135   1.486       .  S
O2018      H2037   0.991       .  S
O2018      H2041   0.990       .  S
O2019      H2033   0.990       .  S
O2019      H2040   0.990       .  S
O2020      C2024   1.286       .  A
O2021      C2024   1.283       .  A
O2022      H2032   0.990       .  S
O2023      H2036   0.990       .  S
C2024      C3246   1.483       .  S
Zr2047     O2048   2.442       .  S
Zr2047     O2049   2.448       .  S
Zr2047     O2050   2.451       .  S
Zr2047     O2053   2.429       .  S
Zr2047     O2055   2.385       .  S
Zr2047     O2056   2.384       .  S
Zr2047     O2057   2.409       .  S
Zr2047     O2058   2.407       .  S
O2048      H2104   0.990       .  S
O2048      H2112   0.990       .  S
O2049      C2069   1.287       .  A
O2050      C2071   1.286       .  A
O2051     Zr2061   2.446       .  S
O2051      C2070   1.288       .  A
O2052     Zr2060   2.414       .  S
O2052      C2071   1.282       .  A
O2053      C2070   1.285       .  A
O2054     Zr2062   2.415       .  S
O2054      C2069   1.281       .  A
O2055     Zr2060   2.397       .  S
O2055     Zr2062   2.382       .  S
O2056     Zr2061   2.389       .  S
O2056     Zr2062   2.373       .  S
O2056      H2091   0.966       .  S
O2057     Zr2060   2.404       .  S
O2057     Zr2077   2.392       .  S
O2057      H2094   0.965       .  S
O2058     Zr2061   2.392       .  S
O2058     Zr2077   2.393       .  S
Zr2059     O2084   2.442       .  S
Zr2059     O2078   2.442       .  S
Zr2059     O2086   2.422       .  S
Zr2059     O2074   2.442       .  S
Zr2059     O2065   2.405       .  S
Zr2059     O2066   2.410       .  S
Zr2059     O2067   2.373       .  S
Zr2059     O2068   2.388       .  S
Zr2060     O2079   2.435       .  S
Zr2060     O2072   2.435       .  S
Zr2060     O2073   2.427       .  S
Zr2060     O2066   2.392       .  S
Zr2060     O2067   2.394       .  S
Zr2061     O2063   2.435       .  S
Zr2061     O2085   2.440       .  S
Zr2061     O2087   2.426       .  S
Zr2061     O2065   2.396       .  S
Zr2061     O2068   2.403       .  S
Zr2062     O2088   2.435       .  S
Zr2062     O2089   2.436       .  S
Zr2062     O2064   2.438       .  S
Zr2062     O2065   2.391       .  S
Zr2062     O2066   2.385       .  S
O2063      H2100   0.990       .  S
O2064      H2095   0.991       .  S
O2064      H2109   0.990       .  S
O2066      H2092   0.965       .  S
O2067     Zr2077   2.385       .  S
O2068     Zr2077   2.376       .  S
O2068      H2093   0.967       .  S
C2069      C2146   1.488       .  S
C2070      C2234   1.491       .  S
C2071      C3477   1.480       .  S
O2072      H2108   0.989       .  S
O2073      C2075   1.284       .  A
O2074      C2075   1.285       .  A
C2075      C3884   1.484       .  S
O2076     Zr2077   2.438       .  S
O2076      H2105   0.991       .  S
Zr2077     O2080   2.438       .  S
Zr2077     O2081   2.440       .  S
Zr2077     O2082   2.414       .  S
O2078      C2083   1.284       .  A
O2079      H2096   0.990       .  S
O2079      H2111   0.990       .  S
O2080      H2097   0.990       .  S
O2081      H2101   0.990       .  S
O2081      H2110   0.990       .  S
O2082      C2083   1.280       .  A
C2083      C2124   1.484       .  S
O2084      H2103   0.990       .  S
O2084      H2107   0.990       .  S
O2085      H2099   0.990       .  S
O2085      H2106   0.990       .  S
O2086      C2090   1.283       .  A
O2087      C2090   1.284       .  A
O2088      H2098   0.990       .  S
O2089      H2102   0.990       .  S
C2090      C3169   1.478       .  S
C2113      C2114   1.411       .  A
C2113      C2118   1.406       .  A
C2114      C2115   1.393       .  A
C2114      H2127   1.083       .  S
C2115      C2116   1.395       .  A
C2115      H2128   1.084       .  S
C2116      C2117   1.402       .  A
C2116      C2119   1.437       .  S
C2117      C2118   1.401       .  A
C2117      H2129   1.083       .  S
C2118      H2130   1.083       .  S
C2119      C2120   1.205       .  T
C2120      C2121   1.438       .  S
C2121      C2122   1.398       .  A
C2121      C2126   1.400       .  A
C2122      C2123   1.397       .  A
C2122      H2131   1.084       .  S
C2123      C2124   1.409       .  A
C2123      H2132   1.083       .  S
C2124      C2125   1.408       .  A
C2125      C2126   1.400       .  A
C2125      H2133   1.083       .  S
C2126      H2134   1.084       .  S
C2135      C2136   1.408       .  A
C2135      C2140   1.410       .  A
C2136      C2137   1.401       .  A
C2136      H2149   1.083       .  S
C2137      C2138   1.401       .  A
C2137      H2150   1.083       .  S
C2138      C2139   1.399       .  A
C2138      C2141   1.443       .  S
C2139      C2140   1.398       .  A
C2139      H2151   1.084       .  S
C2140      H2152   1.083       .  S
C2141      C2142   1.208       .  T
C2142      C2143   1.443       .  S
C2143      C2144   1.402       .  A
C2143      C2148   1.397       .  A
C2144      C2145   1.403   1_554  A
C2144      H2153   1.083       .  S
C2145      C2146   1.408       .  A
C2145      H2154   1.083       .  S
C2146      C2147   1.410       .  A
C2147      C2148   1.396   1_556  A
C2147      H2155   1.083       .  S
C2148      H2156   1.084       .  S
C2157      C2158   1.409       .  A
C2157      C2162   1.410       .  A
C2158      C2159   1.401       .  A
C2158      H2171   1.083       .  S
C2159      C2160   1.401       .  A
C2159      H2172   1.083       .  S
C2160      C2161   1.400       .  A
C2160      C2163   1.447       .  S
C2161      C2162   1.401       .  A
C2161      H2173   1.084       .  S
C2162      H2174   1.083       .  S
C2163      C2164   1.210       .  T
C2164      C2165   1.447       .  S
C2165      C2166   1.400       .  A
C2165      C2170   1.402       .  A
C2166      C2167   1.400       .  A
C2166      H2175   1.083       .  S
C2167      C2168   1.408       .  A
C2167      H2176   1.083       .  S
C2168      C2169   1.410       .  A
C2169      C2170   1.403       .  A
C2169      H2177   1.083       .  S
C2170      H2178   1.083       .  S
C2179      C2180   1.409       .  A
C2179      C2184   1.408       .  A
C2180      C2181   1.395       .  A
C2180      H2193   1.083       .  S
C2181      C2182   1.397       .  A
C2181      H2194   1.084       .  S
C2182      C2183   1.400       .  A
C2182      C2185   1.437       .  S
C2183      C2184   1.400       .  A
C2183      H2195   1.083       .  S
C2184      H2196   1.083       .  S
C2185      C2186   1.204       .  T
C2186      C2187   1.437       .  S
C2187      C2188   1.397       .  A
C2187      C2192   1.400       .  A
C2188      C2189   1.396       .  A
C2188      H2197   1.084       .  S
C2189      C2190   1.409       .  A
C2189      H2198   1.083       .  S
C2190      C2191   1.407       .  A
C2191      C2192   1.399       .  A
C2191      H2199   1.083       .  S
C2192      H2200   1.083       .  S
C2201      C2202   1.409       .  A
C2201      C2206   1.408       .  A
C2202      C2203   1.396       .  A
C2202      H2215   1.083       .  S
C2203      C2204   1.397       .  A
C2203      H2216   1.084       .  S
C2204      C2205   1.400       .  A
C2204      C2207   1.439       .  S
C2205      C2206   1.401       .  A
C2205      H2217   1.083       .  S
C2206      H2218   1.083       .  S
C2207      C2208   1.206       .  T
C2208      C2209   1.439       .  S
C2209      C2210   1.398       .  A
C2209      C2214   1.401       .  A
C2210      C2211   1.396       .  A
C2210      H2219   1.084       .  S
C2211      C2212   1.410       .  A
C2211      H2220   1.083       .  S
C2212      C2213   1.406       .  A
C2213      C2214   1.400       .  A
C2213      H2221   1.083       .  S
C2214      H2222   1.083       .  S
C2223      C2224   1.410   1_556  A
C2223      C2228   1.410       .  A
C2224      C2225   1.402   1_554  A
C2224      H2237   1.083       .  S
C2225      C2226   1.401       .  A
C2225      H2238   1.083       .  S
C2226      C2227   1.400       .  A
C2226      C2229   1.447       .  S
C2227      C2228   1.400       .  A
C2227      H2239   1.083       .  S
C2228      H2240   1.083       .  S
C2229      C2230   1.210       .  T
C2230      C2231   1.447       .  S
C2231      C2232   1.399       .  A
C2231      C2236   1.402       .  A
C2232      C2233   1.399       .  A
C2232      H2241   1.084       .  S
C2233      C2234   1.410       .  A
C2233      H2242   1.083       .  S
C2234      C2235   1.409       .  A
C2235      C2236   1.404       .  A
C2235      H2243   1.083       .  S
C2236      H2244   1.083       .  S
C2245      C2246   1.410       .  A
C2245      C2250   1.409       .  A
C2246      C2247   1.399       .  A
C2246      H2259   1.083       .  S
C2247      C2248   1.399       .  A
C2247      H2260   1.084       .  S
C2248      C2249   1.402       .  A
C2248      C2251   1.446       .  S
C2249      C2250   1.404       .  A
C2249      H2261   1.083       .  S
C2250      H2262   1.083       .  S
C2251      C2252   1.210       .  T
C2252      C2253   1.446   1_565  S
C2253      C2254   1.400       .  A
C2253      C2258   1.401       .  A
C2254      C2255   1.400       .  A
C2254      H2263   1.083       .  S
C2255      C2256   1.409       .  A
C2255      H2264   1.083       .  S
C2256      C2257   1.409       .  A
C2257      C2258   1.401       .  A
C2257      H2265   1.083       .  S
C2258      H2266   1.083       .  S
C2267      C2268   1.409       .  A
C2267      C2272   1.407       .  A
C2268      C2269   1.395       .  A
C2268      H2281   1.083       .  S
C2269      C2270   1.397       .  A
C2269      H2282   1.084       .  S
C2270      C2271   1.401       .  A
C2270      C2273   1.440       .  S
C2271      C2272   1.402       .  A
C2271      H2283   1.083       .  S
C2272      H2284   1.083       .  S
C2273      C2274   1.206       .  T
C2274      C2275   1.439   1_565  S
C2275      C2276   1.400       .  A
C2275      C2280   1.399       .  A
C2276      C2277   1.399       .  A
C2276      H2285   1.083       .  S
C2277      C2278   1.409       .  A
C2277      H2286   1.083       .  S
C2278      C2279   1.408       .  A
C2279      C2280   1.397       .  A
C2279      H2287   1.083       .  S
C2280      H2288   1.084       .  S
C2289      C2290   1.408       .  A
C2289      C2294   1.410       .  A
C2290      C2291   1.403       .  A
C2290      H2303   1.083       .  S
C2291      C2292   1.402       .  A
C2291      H2304   1.083       .  S
C2292      C2293   1.396       .  A
C2292      C2295   1.442       .  S
C2293      C2294   1.395       .  A
C2293      H2305   1.084       .  S
C2294      H2306   1.083       .  S
C2295      C2296   1.207       .  T
C2296      C2297   1.442       .  S
C2297      C2298   1.396   1_556  A
C2297      C2302   1.403   1_556  A
C2298      C2299   1.395       .  A
C2298      H2307   1.084   1_554  S
C2299      C2300   1.410       .  A
C2299      H2308   1.083       .  S
C2300      C2301   1.408       .  A
C2301      C2302   1.404       .  A
C2301      H2309   1.083       .  S
C2302      H2310   1.083   1_554  S
C2311      C2312   1.408       .  A
C2311      C2316   1.409       .  A
C2312      C2313   1.400       .  A
C2312      H2325   1.083       .  S
C2313      C2314   1.401       .  A
C2313      H2326   1.083       .  S
C2314      C2315   1.396       .  A
C2314      C2317   1.436       .  S
C2315      C2316   1.394       .  A
C2315      H2327   1.084       .  S
C2316      H2328   1.083       .  S
C2317      C2318   1.204       .  T
C2318      C2319   1.436       .  S
C2319      C2320   1.400       .  A
C2319      C2324   1.397       .  A
C2320      C2321   1.399       .  A
C2320      H2329   1.083       .  S
C2321      C2322   1.408       .  A
C2321      H2330   1.083       .  S
C2322      C2323   1.409       .  A
C2323      C2324   1.395       .  A
C2323      H2331   1.083       .  S
C2324      H2332   1.084       .  S
C2333      C2334   1.410       .  A
C2333      C2338   1.409       .  A
C2334      C2335   1.400       .  A
C2334      H2347   1.083       .  S
C2335      C2336   1.400       .  A
C2335      H2348   1.084       .  S
C2336      C2337   1.401       .  A
C2336      C2339   1.447       .  S
C2337      C2338   1.403       .  A
C2337      H2349   1.083       .  S
C2338      H2350   1.083       .  S
C2339      C2340   1.211       .  T
C2340      C2341   1.448       .  S
C2341      C2342   1.402       .  A
C2341      C2346   1.400       .  A
C2342      C2343   1.403       .  A
C2342      H2351   1.083       .  S
C2343      C2344   1.410       .  A
C2343      H2352   1.083       .  S
C2344      C2345   1.408       .  A
C2345      C2346   1.400       .  A
C2345      H2353   1.083       .  S
C2346      H2354   1.083       .  S
C2355      C2356   1.408       .  A
C2355      C2360   1.409       .  A
C2356      C2357   1.401       .  A
C2356      H2369   1.083       .  S
C2357      C2358   1.401       .  A
C2357      H2370   1.083       .  S
C2358      C2359   1.398       .  A
C2358      C2361   1.441       .  S
C2359      C2360   1.397       .  A
C2359      H2371   1.084       .  S
C2360      H2372   1.083       .  S
C2361      C2362   1.206       .  T
C2362      C2363   1.440       .  S
C2363      C2364   1.401       .  A
C2363      C2368   1.398       .  A
C2364      C2365   1.400       .  A
C2364      H2373   1.083       .  S
C2365      C2366   1.408       .  A
C2365      H2374   1.083       .  S
C2366      C2367   1.409       .  A
C2367      C2368   1.396       .  A
C2367      H2375   1.083       .  S
C2368      H2376   1.084       .  S
C2377      C2378   1.409       .  A
C2377      C2382   1.407       .  A
C2378      C2379   1.397       .  A
C2378      H2391   1.083       .  S
C2379      C2380   1.398       .  A
C2379      H2392   1.084       .  S
C2380      C2381   1.400       .  A
C2380      C2383   1.438       .  S
C2381      C2382   1.398       .  A
C2381      H2393   1.083       .  S
C2382      H2394   1.083       .  S
C2383      C2384   1.205       .  T
C2384      C2385   1.439       .  S
C2385      C2386   1.397       .  A
C2385      C2390   1.401       .  A
C2386      C2387   1.396       .  A
C2386      H2395   1.084       .  S
C2387      C2388   1.411       .  A
C2387      H2396   1.083       .  S
C2388      C2389   1.407       .  A
C2389      C2390   1.402       .  A
C2389      H2397   1.083       .  S
C2390      H2398   1.083       .  S
C2399      C2400   1.410       .  A
C2399      C2404   1.406       .  A
C2400      C2401   1.395       .  A
C2400      H2413   1.083       .  S
C2401      C2402   1.397       .  A
C2401      H2414   1.084       .  S
C2402      C2403   1.399       .  A
C2402      C2405   1.434       .  S
C2403      C2404   1.398       .  A
C2403      H2415   1.083       .  S
C2404      H2416   1.083       .  S
C2405      C2406   1.203       .  T
C2406      C2407   1.434       .  S
C2407      C2408   1.399       .  A
C2407      C2412   1.397       .  A
C2408      C2409   1.398       .  A
C2408      H2417   1.083       .  S
C2409      C2410   1.407       .  A
C2409      H2418   1.083       .  S
C2410      C2411   1.410       .  A
C2411      C2412   1.395       .  A
C2411      H2419   1.083       .  S
C2412      H2420   1.084       .  S
C2421      C2422   1.408       .  A
C2421      C2426   1.409       .  A
C2422      C2423   1.401       .  A
C2422      H2435   1.083       .  S
C2423      C2424   1.402       .  A
C2423      H2436   1.083       .  S
C2424      C2425   1.397       .  A
C2424      C2427   1.441       .  S
C2425      C2426   1.395       .  A
C2425      H2437   1.084       .  S
C2426      H2438   1.083       .  S
C2427      C2428   1.207       .  T
C2428      C2429   1.442       .  S
C2429      C2430   1.403       .  A
C2429      C2434   1.396       .  A
C2430      C2431   1.404       .  A
C2430      H2439   1.083       .  S
C2431      C2432   1.409       .  A
C2431      H2440   1.083       .  S
C2432      C2433   1.411       .  A
C2433      C2434   1.396       .  A
C2433      H2441   1.083       .  S
C2434      H2442   1.084       .  S
C2443      C2444   1.411       .  A
C2443      C2448   1.406       .  A
C2444      C2445   1.395       .  A
C2444      H2457   1.083       .  S
C2445      C2446   1.396       .  A
C2445      H2458   1.084       .  S
C2446      C2447   1.401       .  A
C2446      C2449   1.438       .  S
C2447      C2448   1.400       .  A
C2447      H2459   1.083       .  S
C2448      H2460   1.083       .  S
C2449      C2450   1.205       .  T
C2450      C2451   1.438       .  S
C2451      C2452   1.396       .  A
C2451      C2456   1.401       .  A
C2452      C2453   1.395       .  A
C2452      H2461   1.084       .  S
C2453      C2454   1.410       .  A
C2453      H2462   1.083       .  S
C2454      C2455   1.408       .  A
C2455      C2456   1.401       .  A
C2455      H2463   1.083       .  S
C2456      H2464   1.083       .  S
C2465      C2466   1.409       .  A
C2465      C2470   1.409       .  A
C2466      C2467   1.397       .  A
C2466      H2479   1.083       .  S
C2467      C2468   1.398       .  A
C2467      H2480   1.084       .  S
C2468      C2469   1.400       .  A
C2468      C2471   1.440       .  S
C2469      C2470   1.400       .  A
C2469      H2481   1.083       .  S
C2470      H2482   1.083       .  S
C2471      C2472   1.206       .  T
C2472      C2473   1.440       .  S
C2473      C2474   1.400       .  A
C2473      C2478   1.398       .  A
C2474      C2475   1.400       .  A
C2474      H2483   1.083       .  S
C2475      C2476   1.409       .  A
C2475      H2484   1.083       .  S
C2476      C2477   1.409       .  A
C2477      C2478   1.396       .  A
C2477      H2485   1.083       .  S
C2478      H2486   1.084       .  S
C2487      C2488   1.410       .  A
C2487      C2492   1.410       .  A
C2488      C2489   1.403       .  A
C2488      H2501   1.083       .  S
C2489      C2490   1.402       .  A
C2489      H2502   1.083       .  S
C2490      C2491   1.401       .  A
C2490      C2493   1.450       .  S
C2491      C2492   1.401       .  A
C2491      H2503   1.083       .  S
C2492      H2504   1.083       .  S
C2493      C2494   1.212       .  T
C2494      C2495   1.450       .  S
C2495      C2496   1.401       .  A
C2495      C2500   1.402       .  A
C2496      C2497   1.402       .  A
C2496      H2505   1.084       .  S
C2497      C2498   1.410       .  A
C2497      H2506   1.083       .  S
C2498      C2499   1.409       .  A
C2499      C2500   1.404       .  A
C2499      H2507   1.083       .  S
C2500      H2508   1.083       .  S
C2509      C2510   1.409       .  A
C2509      C2514   1.409       .  A
C2510      C2511   1.398       .  A
C2510      H2523   1.083       .  S
C2511      C2512   1.398       .  A
C2511      H2524   1.084       .  S
C2512      C2513   1.402       .  A
C2512      C2515   1.444       .  S
C2513      C2514   1.403       .  A
C2513      H2525   1.083       .  S
C2514      H2526   1.083       .  S
C2515      C2516   1.208       .  T
C2516      C2517   1.444       .  S
C2517      C2518   1.399       .  A
C2517      C2522   1.400       .  A
C2518      C2519   1.399       .  A
C2518      H2527   1.084       .  S
C2519      C2520   1.410       .  A
C2519      H2528   1.083       .  S
C2520      C2521   1.409       .  A
C2521      C2522   1.401       .  A
C2521      H2529   1.083       .  S
C2522      H2530   1.083       .  S
C2531      C2532   1.407       .  A
C2531      C2536   1.411       .  A
C2532      C2533   1.402       .  A
C2532      H2545   1.083       .  S
C2533      C2534   1.402       .  A
C2533      H2546   1.083       .  S
C2534      C2535   1.398       .  A
C2534      C2537   1.443       .  S
C2535      C2536   1.397       .  A
C2535      H2547   1.084       .  S
C2536      H2548   1.083       .  S
C2537      C2538   1.208       .  T
C2538      C2539   1.443       .  S
C2539      C2540   1.401   1_556  A
C2539      C2544   1.398   1_556  A
C2540      C2541   1.402       .  A
C2540      H2549   1.083   1_554  S
C2541      C2542   1.408       .  A
C2541      H2550   1.083       .  S
C2542      C2543   1.411       .  A
C2543      C2544   1.397       .  A
C2543      H2551   1.083       .  S
C2544      H2552   1.084   1_554  S
C2553      C2554   1.408       .  A
C2553      C2558   1.409       .  A
C2554      C2555   1.402       .  A
C2554      H2567   1.083       .  S
C2555      C2556   1.402       .  A
C2555      H2568   1.083       .  S
C2556      C2557   1.396       .  A
C2556      C2559   1.439       .  S
C2557      C2558   1.394       .  A
C2557      H2569   1.084       .  S
C2558      H2570   1.083       .  S
C2559      C2560   1.205       .  T
C2560      C2561   1.439       .  S
C2561      C2562   1.402       .  A
C2561      C2566   1.395       .  A
C2562      C2563   1.403       .  A
C2562      H2571   1.083       .  S
C2563      C2564   1.409       .  A
C2563      H2572   1.083       .  S
C2564      C2565   1.409       .  A
C2565      C2566   1.393       .  A
C2565      H2573   1.083       .  S
C2566      H2574   1.084       .  S
C2575      C2576   1.411       .  A
C2575      C2580   1.409       .  A
C2576      C2577   1.402       .  A
C2576      H2589   1.083       .  S
C2577      C2578   1.400       .  A
C2577      H2590   1.083       .  S
C2578      C2579   1.401       .  A
C2578      C2581   1.446       .  S
C2579      C2580   1.401       .  A
C2579      H2591   1.084       .  S
C2580      H2592   1.083       .  S
C2581      C2582   1.210       .  T
C2582      C2583   1.445       .  S
C2583      C2584   1.400       .  A
C2583      C2588   1.402       .  A
C2584      C2585   1.399       .  A
C2584      H2593   1.084       .  S
C2585      C2586   1.408       .  A
C2585      H2594   1.083       .  S
C2586      C2587   1.408       .  A
C2587      C2588   1.402       .  A
C2587      H2595   1.083       .  S
C2588      H2596   1.083       .  S
C2597      C2598   1.408       .  A
C2597      C2602   1.409       .  A
C2598      C2599   1.401       .  A
C2598      H2611   1.083       .  S
C2599      C2600   1.401       .  A
C2599      H2612   1.083       .  S
C2600      C2601   1.397       .  A
C2600      C2603   1.438       .  S
C2601      C2602   1.395       .  A
C2601      H2613   1.084       .  S
C2602      H2614   1.083       .  S
C2603      C2604   1.205       .  T
C2604      C2605   1.438       .  S
C2605      C2606   1.401       .  A
C2605      C2610   1.397       .  A
C2606      C2607   1.400       .  A
C2606      H2615   1.083       .  S
C2607      C2608   1.407       .  A
C2607      H2616   1.083       .  S
C2608      C2609   1.409       .  A
C2609      C2610   1.395       .  A
C2609      H2617   1.083       .  S
C2610      H2618   1.084       .  S
C2619      C2620   1.408       .  A
C2619      C2624   1.410       .  A
C2620      C2621   1.402       .  A
C2620      H2633   1.083       .  S
C2621      C2622   1.402       .  A
C2621      H2634   1.083       .  S
C2622      C2623   1.396       .  A
C2622      C2625   1.440       .  S
C2623      C2624   1.394       .  A
C2623      H2635   1.084       .  S
C2624      H2636   1.083       .  S
C2625      C2626   1.206       .  T
C2626      C2627   1.440       .  S
C2627      C2628   1.402       .  A
C2627      C2632   1.397       .  A
C2628      C2629   1.402   1_554  A
C2628      H2637   1.083       .  S
C2629      C2630   1.407       .  A
C2629      H2638   1.083       .  S
C2630      C2631   1.410       .  A
C2631      C2632   1.395   1_556  A
C2631      H2639   1.083       .  S
C2632      H2640   1.084       .  S
C2641      C2642   1.408       .  A
C2641      C2646   1.409       .  A
C2642      C2643   1.397       .  A
C2642      H2655   1.082       .  S
C2643      C2644   1.398       .  A
C2643      H2656   1.084       .  S
C2644      C2645   1.399       .  A
C2644      C2647   1.438   1_565  S
C2645      C2646   1.398       .  A
C2645      H2657   1.084       .  S
C2646      H2658   1.083       .  S
C2647      C2648   1.205       .  T
C2648      C2649   1.437       .  S
C2649      C2650   1.401       .  A
C2649      C2654   1.397       .  A
C2650      C2651   1.401       .  A
C2650      H2659   1.083       .  S
C2651      C2652   1.408       .  A
C2651      H2660   1.083       .  S
C2652      C2653   1.409       .  A
C2653      C2654   1.394       .  A
C2653      H2661   1.083       .  S
C2654      H2662   1.084       .  S
C2663      C2664   1.408       .  A
C2663      C2668   1.407       .  A
C2664      C2665   1.401       .  A
C2664      H2677   1.083       .  S
C2665      C2666   1.401       .  A
C2665      H2678   1.083       .  S
C2666      C2667   1.399       .  A
C2666      C2669   1.442       .  S
C2667      C2668   1.398       .  A
C2667      H2679   1.084       .  S
C2668      H2680   1.083       .  S
C2669      C2670   1.208       .  T
C2670      C2671   1.443       .  S
C2671      C2672   1.399       .  A
C2671      C2676   1.401       .  A
C2672      C2673   1.398       .  A
C2672      H2681   1.084       .  S
C2673      C2674   1.409       .  A
C2673      H2682   1.083       .  S
C2674      C2675   1.409       .  A
C2675      C2676   1.401       .  A
C2675      H2683   1.083       .  S
C2676      H2684   1.083       .  S
C2685      C2686   1.409       .  A
C2685      C2690   1.409       .  A
C2686      C2687   1.400       .  A
C2686      H2699   1.083       .  S
C2687      C2688   1.400       .  A
C2687      H2700   1.084       .  S
C2688      C2689   1.401       .  A
C2688      C2691   1.446       .  S
C2689      C2690   1.402       .  A
C2689      H2701   1.083       .  S
C2690      H2702   1.083       .  S
C2691      C2692   1.210       .  T
C2692      C2693   1.446       .  S
C2693      C2694   1.401       .  A
C2693      C2698   1.399       .  A
C2694      C2695   1.402       .  A
C2694      H2703   1.083       .  S
C2695      C2696   1.409       .  A
C2695      H2704   1.083       .  S
C2696      C2697   1.410       .  A
C2697      C2698   1.399       .  A
C2697      H2705   1.083       .  S
C2698      H2706   1.084       .  S
C2707      C2708   1.409       .  A
C2707      C2712   1.409       .  A
C2708      C2709   1.400       .  A
C2708      H2721   1.083       .  S
C2709      C2710   1.400       .  A
C2709      H2722   1.084       .  S
C2710      C2711   1.401       .  A
C2710      C2713   1.444   1_565  S
C2711      C2712   1.401       .  A
C2711      H2723   1.083       .  S
C2712      H2724   1.083       .  S
C2713      C2714   1.209       .  T
C2714      C2715   1.444       .  S
C2715      C2716   1.398       .  A
C2715      C2720   1.402       .  A
C2716      C2717   1.397       .  A
C2716      H2725   1.084       .  S
C2717      C2718   1.410       .  A
C2717      H2726   1.083       .  S
C2718      C2719   1.409       .  A
C2719      C2720   1.404       .  A
C2719      H2727   1.083       .  S
C2720      H2728   1.083       .  S
C2729      C2730   1.410       .  A
C2729      C2734   1.409       .  A
C2730      C2731   1.400       .  A
C2730      H2743   1.083       .  S
C2731      C2732   1.400       .  A
C2731      H2744   1.083       .  S
C2732      C2733   1.401       .  A
C2732      C2735   1.446       .  S
C2733      C2734   1.402       .  A
C2733      H2745   1.083       .  S
C2734      H2746   1.083       .  S
C2735      C2736   1.210       .  T
C2736      C2737   1.446       .  S
C2737      C2738   1.399       .  A
C2737      C2742   1.402       .  A
C2738      C2739   1.400       .  A
C2738      H2747   1.084       .  S
C2739      C2740   1.411       .  A
C2739      H2748   1.083       .  S
C2740      C2741   1.407       .  A
C2741      C2742   1.402       .  A
C2741      H2749   1.083       .  S
C2742      H2750   1.083       .  S
C2751      C2752   1.408       .  A
C2751      C2756   1.410       .  A
C2752      C2753   1.402       .  A
C2752      H2765   1.083       .  S
C2753      C2754   1.402       .  A
C2753      H2766   1.083       .  S
C2754      C2755   1.397       .  A
C2754      C2757   1.441       .  S
C2755      C2756   1.396       .  A
C2755      H2767   1.084       .  S
C2756      H2768   1.083       .  S
C2757      C2758   1.207       .  T
C2758      C2759   1.441       .  S
C2759      C2760   1.403       .  A
C2759      C2764   1.396       .  A
C2760      C2761   1.404       .  A
C2760      H2769   1.083       .  S
C2761      C2762   1.408       .  A
C2761      H2770   1.083       .  S
C2762      C2763   1.410       .  A
C2763      C2764   1.394       .  A
C2763      H2771   1.083       .  S
C2764      H2772   1.084       .  S
C2773      C2774   1.408       .  A
C2773      C2778   1.409       .  A
C2774      C2775   1.400       .  A
C2774      H2787   1.083       .  S
C2775      C2776   1.401       .  A
C2775      H2788   1.083       .  S
C2776      C2777   1.397       .  A
C2776      C2779   1.439       .  S
C2777      C2778   1.396       .  A
C2777      H2789   1.084       .  S
C2778      H2790   1.083       .  S
C2779      C2780   1.205       .  T
C2780      C2781   1.439       .  S
C2781      C2782   1.400       .  A
C2781      C2786   1.398       .  A
C2782      C2783   1.399       .  A
C2782      H2791   1.083       .  S
C2783      C2784   1.406       .  A
C2783      H2792   1.083       .  S
C2784      C2785   1.408       .  A
C2785      C2786   1.397       .  A
C2785      H2793   1.083       .  S
C2786      H2794   1.084       .  S
C2795      C2796   1.408       .  A
C2795      C2800   1.411       .  A
C2796      C2797   1.403       .  A
C2796      H2809   1.083   1_556  S
C2797      C2798   1.402       .  A
C2797      H2810   1.083       .  S
C2798      C2799   1.399       .  A
C2798      C2801   1.447       .  S
C2799      C2800   1.399       .  A
C2799      H2811   1.084       .  S
C2800      H2812   1.083       .  S
C2801      C2802   1.210       .  T
C2802      C2803   1.447       .  S
C2803      C2804   1.400       .  A
C2803      C2808   1.401       .  A
C2804      C2805   1.400       .  A
C2804      H2813   1.084       .  S
C2805      C2806   1.410       .  A
C2805      H2814   1.083       .  S
C2806      C2807   1.409       .  A
C2807      C2808   1.403       .  A
C2807      H2815   1.083       .  S
C2808      H2816   1.083       .  S
C2817      C2818   1.408       .  A
C2817      C2822   1.407       .  A
C2818      C2819   1.403       .  A
C2818      H2831   1.083       .  S
C2819      C2820   1.402       .  A
C2819      H2832   1.083       .  S
C2820      C2821   1.399       .  A
C2820      C2823   1.442       .  S
C2821      C2822   1.396       .  A
C2821      H2833   1.084       .  S
C2822      H2834   1.083       .  S
C2823      C2824   1.208       .  T
C2824      C2825   1.442       .  S
C2825      C2826   1.397       .  A
C2825      C2830   1.402       .  A
C2826      C2827   1.394       .  A
C2826      H2835   1.084       .  S
C2827      C2828   1.409       .  A
C2827      H2836   1.083       .  S
C2828      C2829   1.409       .  A
C2829      C2830   1.404       .  A
C2829      H2837   1.083       .  S
C2830      H2838   1.083       .  S
C2839      C2840   1.410       .  A
C2839      C2844   1.408       .  A
C2840      C2841   1.394       .  A
C2840      H2853   1.083       .  S
C2841      C2842   1.397       .  A
C2841      H2854   1.084       .  S
C2842      C2843   1.402       .  A
C2842      C2845   1.441       .  S
C2843      C2844   1.403       .  A
C2843      H2855   1.083       .  S
C2844      H2856   1.083       .  S
C2845      C2846   1.207       .  T
C2846      C2847   1.441       .  S
C2847      C2848   1.400       .  A
C2847      C2852   1.399       .  A
C2848      C2849   1.401       .  A
C2848      H2857   1.083       .  S
C2849      C2850   1.407       .  A
C2849      H2858   1.083       .  S
C2850      C2851   1.407       .  A
C2851      C2852   1.397       .  A
C2851      H2859   1.083       .  S
C2852      H2860   1.084       .  S
C2861      C2862   1.406       .  A
C2861      C2866   1.409       .  A
C2862      C2863   1.400       .  A
C2862      H2875   1.083       .  S
C2863      C2864   1.401       .  A
C2863      H2876   1.083       .  S
C2864      C2865   1.399       .  A
C2864      C2867   1.442       .  S
C2865      C2866   1.398       .  A
C2865      H2877   1.084       .  S
C2866      H2878   1.083       .  S
C2867      C2868   1.207       .  T
C2868      C2869   1.442       .  S
C2869      C2870   1.400       .  A
C2869      C2874   1.400       .  A
C2870      C2871   1.400       .  A
C2870      H2879   1.083       .  S
C2871      C2872   1.407       .  A
C2871      H2880   1.083       .  S
C2872      C2873   1.409       .  A
C2873      C2874   1.399       .  A
C2873      H2881   1.083       .  S
C2874      H2882   1.084       .  S
C2883      C2884   1.407       .  A
C2883      C2888   1.409       .  A
C2884      C2885   1.399       .  A
C2884      H2897   1.083       .  S
C2885      C2886   1.400       .  A
C2885      H2898   1.083       .  S
C2886      C2887   1.397       .  A
C2886      C2889   1.436       .  S
C2887      C2888   1.395       .  A
C2887      H2899   1.084       .  S
C2888      H2900   1.083       .  S
C2889      C2890   1.204       .  T
C2890      C2891   1.437       .  S
C2891      C2892   1.401       .  A
C2891      C2896   1.397       .  A
C2892      C2893   1.400   1_554  A
C2892      H2901   1.083       .  S
C2893      C2894   1.406       .  A
C2893      H2902   1.083       .  S
C2894      C2895   1.410       .  A
C2895      C2896   1.395   1_556  A
C2895      H2903   1.083       .  S
C2896      H2904   1.084       .  S
C2905      C2906   1.407       .  A
C2905      C2910   1.408       .  A
C2906      C2907   1.403       .  A
C2906      H2919   1.083       .  S
C2907      C2908   1.402       .  A
C2907      H2920   1.083       .  S
C2908      C2909   1.398       .  A
C2908      C2911   1.443       .  S
C2909      C2910   1.396       .  A
C2909      H2921   1.084       .  S
C2910      H2922   1.083       .  S
C2911      C2912   1.208       .  T
C2912      C2913   1.443       .  S
C2913      C2914   1.398       .  A
C2913      C2918   1.402       .  A
C2914      C2915   1.396       .  A
C2914      H2923   1.084       .  S
C2915      C2916   1.408       .  A
C2915      H2924   1.083       .  S
C2916      C2917   1.408       .  A
C2917      C2918   1.403       .  A
C2917      H2925   1.083       .  S
C2918      H2926   1.083       .  S
C2927      C2928   1.408       .  A
C2927      C2932   1.408       .  A
C2928      C2929   1.400       .  A
C2928      H2941   1.083       .  S
C2929      C2930   1.400       .  A
C2929      H2942   1.083       .  S
C2930      C2931   1.400       .  A
C2930      C2933   1.443       .  S
C2931      C2932   1.399       .  A
C2931      H2943   1.083       .  S
C2932      H2944   1.083       .  S
C2933      C2934   1.208       .  T
C2934      C2935   1.444       .  S
C2935      C2936   1.399       .  A
C2935      C2940   1.401       .  A
C2936      C2937   1.399       .  A
C2936      H2945   1.083       .  S
C2937      C2938   1.409       .  A
C2937      H2946   1.083       .  S
C2938      C2939   1.410       .  A
C2939      C2940   1.402       .  A
C2939      H2947   1.083       .  S
C2940      H2948   1.084       .  S
C2949      C2950   1.410       .  A
C2949      C2954   1.409       .  A
C2950      C2951   1.400       .  A
C2950      H2963   1.083       .  S
C2951      C2952   1.400       .  A
C2951      H2964   1.084       .  S
C2952      C2953   1.400       .  A
C2952      C2955   1.443       .  S
C2953      C2954   1.400       .  A
C2953      H2965   1.083       .  S
C2954      H2966   1.083       .  S
C2955      C2956   1.208       .  T
C2956      C2957   1.443       .  S
C2957      C2958   1.398       .  A
C2957      C2962   1.402       .  A
C2958      C2959   1.396       .  A
C2958      H2967   1.084       .  S
C2959      C2960   1.408       .  A
C2959      H2968   1.083       .  S
C2960      C2961   1.409       .  A
C2961      C2962   1.402       .  A
C2961      H2969   1.083       .  S
C2962      H2970   1.083       .  S
C2971      C2972   1.410       .  A
C2971      C2976   1.408       .  A
C2972      C2973   1.398       .  A
C2972      H2985   1.083       .  S
C2973      C2974   1.398       .  A
C2973      H2986   1.084       .  S
C2974      C2975   1.401       .  A
C2974      C2977   1.443       .  S
C2975      C2976   1.402       .  A
C2975      H2987   1.083       .  S
C2976      H2988   1.083       .  S
C2977      C2978   1.208       .  T
C2978      C2979   1.443       .  S
C2979      C2980   1.400       .  A
C2979      C2984   1.400       .  A
C2980      C2981   1.400       .  A
C2980      H2989   1.083       .  S
C2981      C2982   1.409       .  A
C2981      H2990   1.083       .  S
C2982      C2983   1.409       .  A
C2983      C2984   1.400       .  A
C2983      H2991   1.083       .  S
C2984      H2992   1.084       .  S
C2993      C2994   1.407       .  A
C2993      C2998   1.407       .  A
C2994      C2995   1.403       .  A
C2994      H3007   1.083       .  S
C2995      C2996   1.402       .  A
C2995      H3008   1.083       .  S
C2996      C2997   1.397       .  A
C2996      C2999   1.440       .  S
C2997      C2998   1.394       .  A
C2997      H3009   1.084       .  S
C2998      H3010   1.083       .  S
C2999      C3000   1.206       .  T
C3000      C3001   1.440       .  S
C3001      C3002   1.397       .  A
C3001      C3006   1.402       .  A
C3002      C3003   1.393       .  A
C3002      H3011   1.084       .  S
C3003      C3004   1.409       .  A
C3003      H3012   1.083       .  S
C3004      C3005   1.408       .  A
C3005      C3006   1.403       .  A
C3005      H3013   1.083       .  S
C3006      H3014   1.083       .  S
C3015      C3016   1.411       .  A
C3015      C3020   1.409       .  A
C3016      C3017   1.399       .  A
C3016      H3029   1.083   1_554  S
C3017      C3018   1.399       .  A
C3017      H3030   1.084       .  S
C3018      C3019   1.402       .  A
C3018      C3021   1.446       .  S
C3019      C3020   1.403       .  A
C3019      H3031   1.083       .  S
C3020      H3032   1.083       .  S
C3021      C3022   1.210       .  T
C3022      C3023   1.446       .  S
C3023      C3024   1.401       .  A
C3023      C3028   1.401       .  A
C3024      C3025   1.400       .  A
C3024      H3033   1.083       .  S
C3025      C3026   1.409       .  A
C3025      H3034   1.083       .  S
C3026      C3027   1.408       .  A
C3027      C3028   1.401       .  A
C3027      H3035   1.083       .  S
C3028      H3036   1.083       .  S
C3037      C3038   1.409   1_554  A
C3037      C3042   1.410       .  A
C3038      C3039   1.402       .  A
C3038      H3051   1.083       .  S
C3039      C3040   1.401       .  A
C3039      H3052   1.083       .  S
C3040      C3041   1.399       .  A
C3040      C3043   1.444       .  S
C3041      C3042   1.398   1_556  A
C3041      H3053   1.084   1_556  S
C3042      H3054   1.083       .  S
C3043      C3044   1.209       .  T
C3044      C3045   1.444       .  S
C3045      C3046   1.399       .  A
C3045      C3050   1.401       .  A
C3046      C3047   1.398       .  A
C3046      H3055   1.084       .  S
C3047      C3048   1.409       .  A
C3047      H3056   1.083       .  S
C3048      C3049   1.410       .  A
C3049      C3050   1.402       .  A
C3049      H3057   1.083   1_556  S
C3050      H3058   1.083   1_556  S
C3059      C3060   1.410       .  A
C3059      C3064   1.408       .  A
C3060      C3061   1.395       .  A
C3060      H3073   1.083       .  S
C3061      C3062   1.397       .  A
C3061      H3074   1.084       .  S
C3062      C3063   1.402       .  A
C3062      C3065   1.441       .  S
C3063      C3064   1.403       .  A
C3063      H3075   1.083       .  S
C3064      H3076   1.083       .  S
C3065      C3066   1.207       .  T
C3066      C3067   1.441       .  S
C3067      C3068   1.399       .  A
C3067      C3072   1.401       .  A
C3068      C3069   1.398       .  A
C3068      H3077   1.084       .  S
C3069      C3070   1.409       .  A
C3069      H3078   1.083       .  S
C3070      C3071   1.407       .  A
C3071      C3072   1.400       .  A
C3071      H3079   1.083       .  S
C3072      H3080   1.083       .  S
C3081      C3082   1.409       .  A
C3081      C3086   1.410       .  A
C3082      C3083   1.403       .  A
C3082      H3095   1.083       .  S
C3083      C3084   1.403       .  A
C3083      H3096   1.083       .  S
C3084      C3085   1.397       .  A
C3084      C3087   1.444       .  S
C3085      C3086   1.396       .  A
C3085      H3097   1.084       .  S
C3086      H3098   1.083       .  S
C3087      C3088   1.209       .  T
C3088      C3089   1.444       .  S
C3089      C3090   1.403       .  A
C3089      C3094   1.398       .  A
C3090      C3091   1.404       .  A
C3090      H3099   1.083       .  S
C3091      C3092   1.408       .  A
C3091      H3100   1.083       .  S
C3092      C3093   1.410       .  A
C3093      C3094   1.398       .  A
C3093      H3101   1.083       .  S
C3094      H3102   1.084       .  S
C3103      C3104   1.409       .  A
C3103      C3108   1.409       .  A
C3104      C3105   1.401       .  A
C3104      H3117   1.083       .  S
C3105      C3106   1.400       .  A
C3105      H3118   1.083       .  S
C3106      C3107   1.399       .  A
C3106      C3109   1.444       .  S
C3107      C3108   1.399       .  A
C3107      H3119   1.084       .  S
C3108      H3120   1.083       .  S
C3109      C3110   1.208       .  T
C3110      C3111   1.444       .  S
C3111      C3112   1.400       .  A
C3111      C3116   1.400       .  A
C3112      C3113   1.400       .  A
C3112      H3121   1.084       .  S
C3113      C3114   1.409       .  A
C3113      H3122   1.083       .  S
C3114      C3115   1.409       .  A
C3115      C3116   1.400       .  A
C3115      H3123   1.083       .  S
C3116      H3124   1.083       .  S
C3125      C3126   1.408       .  A
C3125      C3130   1.406       .  A
C3126      C3127   1.403       .  A
C3126      H3139   1.083       .  S
C3127      C3128   1.402       .  A
C3127      H3140   1.083       .  S
C3128      C3129   1.397       .  A
C3128      C3131   1.440       .  S
C3129      C3130   1.393       .  A
C3129      H3141   1.084       .  S
C3130      H3142   1.083       .  S
C3131      C3132   1.206       .  T
C3132      C3133   1.440       .  S
C3133      C3134   1.398       .  A
C3133      C3138   1.401       .  A
C3134      C3135   1.395       .  A
C3134      H3143   1.084       .  S
C3135      C3136   1.408       .  A
C3135      H3144   1.083       .  S
C3136      C3137   1.407       .  A
C3137      C3138   1.402       .  A
C3137      H3145   1.083       .  S
C3138      H3146   1.083       .  S
C3147      C3148   1.409       .  A
C3147      C3152   1.408       .  A
C3148      C3149   1.397       .  A
C3148      H3161   1.083       .  S
C3149      C3150   1.398       .  A
C3149      H3162   1.084       .  S
C3150      C3151   1.400       .  A
C3150      C3153   1.439       .  S
C3151      C3152   1.399       .  A
C3151      H3163   1.083       .  S
C3152      H3164   1.083       .  S
C3153      C3154   1.206   1_455  T
C3154      C3155   1.439       .  S
C3155      C3156   1.398       .  A
C3155      C3160   1.401       .  A
C3156      C3157   1.396       .  A
C3156      H3165   1.084       .  S
C3157      C3158   1.409       .  A
C3157      H3166   1.083       .  S
C3158      C3159   1.408       .  A
C3159      C3160   1.401       .  A
C3159      H3167   1.083       .  S
C3160      H3168   1.083       .  S
C3169      C3170   1.409       .  A
C3169      C3174   1.407       .  A
C3170      C3171   1.396       .  A
C3170      H3183   1.083       .  S
C3171      C3172   1.397       .  A
C3171      H3184   1.084       .  S
C3172      C3173   1.399       .  A
C3172      C3175   1.434   1_545  S
C3173      C3174   1.396       .  A
C3173      H3185   1.084       .  S
C3174      H3186   1.083       .  S
C3175      C3176   1.202       .  T
C3176      C3177   1.434       .  S
C3177      C3178   1.399       .  A
C3177      C3182   1.397       .  A
C3178      C3179   1.398       .  A
C3178      H3187   1.083       .  S
C3179      C3180   1.407       .  A
C3179      H3188   1.083       .  S
C3180      C3181   1.407       .  A
C3181      C3182   1.394       .  A
C3181      H3189   1.083       .  S
C3182      H3190   1.084       .  S
C3191      C3192   1.408       .  A
C3191      C3196   1.409       .  A
C3192      C3193   1.393       .  A
C3192      H3205   1.083       .  S
C3193      C3194   1.397       .  A
C3193      H3206   1.084       .  S
C3194      C3195   1.402       .  A
C3194      C3197   1.440       .  S
C3195      C3196   1.404       .  A
C3195      H3207   1.083       .  S
C3196      H3208   1.083       .  S
C3197      C3198   1.206       .  T
C3198      C3199   1.440       .  S
C3199      C3200   1.401       .  A
C3199      C3204   1.398       .  A
C3200      C3201   1.402       .  A
C3200      H3209   1.083       .  S
C3201      C3202   1.408       .  A
C3201      H3210   1.083       .  S
C3202      C3203   1.408       .  A
C3203      C3204   1.395       .  A
C3203      H3211   1.083       .  S
C3204      H3212   1.084       .  S
C3213      C3214   1.409       .  A
C3213      C3218   1.408       .  A
C3214      C3215   1.399       .  A
C3214      H3227   1.083       .  S
C3215      C3216   1.400       .  A
C3215      H3228   1.084       .  S
C3216      C3217   1.398       .  A
C3216      C3219   1.439   1_455  S
C3217      C3218   1.397       .  A
C3217      H3229   1.084       .  S
C3218      H3230   1.083       .  S
C3219      C3220   1.205       .  T
C3220      C3221   1.438       .  S
C3221      C3222   1.400       .  A
C3221      C3226   1.398       .  A
C3222      C3223   1.400       .  A
C3222      H3231   1.083       .  S
C3223      C3224   1.408       .  A
C3223      H3232   1.083       .  S
C3224      C3225   1.409       .  A
C3225      C3226   1.396       .  A
C3225      H3233   1.083       .  S
C3226      H3234   1.084       .  S
C3235      C3236   1.407       .  A
C3235      C3240   1.408       .  A
C3236      C3237   1.401       .  A
C3236      H3249   1.083       .  S
C3237      C3238   1.402       .  A
C3237      H3250   1.083       .  S
C3238      C3239   1.397       .  A
C3238      C3241   1.439       .  S
C3239      C3240   1.395       .  A
C3239      H3251   1.084       .  S
C3240      H3252   1.083       .  S
C3241      C3242   1.205       .  T
C3242      C3243   1.439   1_565  S
C3243      C3244   1.399       .  A
C3243      C3248   1.399       .  A
C3244      C3245   1.398       .  A
C3244      H3253   1.084       .  S
C3245      C3246   1.409       .  A
C3245      H3254   1.083       .  S
C3246      C3247   1.408       .  A
C3247      C3248   1.398       .  A
C3247      H3255   1.083       .  S
C3248      H3256   1.084       .  S
C3257      C3258   1.409       .  A
C3257      C3262   1.408       .  A
C3258      C3259   1.396       .  A
C3258      H3271   1.083       .  S
C3259      C3260   1.397       .  A
C3259      H3272   1.084       .  S
C3260      C3261   1.400       .  A
C3260      C3263   1.438       .  S
C3261      C3262   1.400       .  A
C3261      H3273   1.083       .  S
C3262      H3274   1.083       .  S
C3263      C3264   1.205       .  T
C3264      C3265   1.439       .  S
C3265      C3266   1.397       .  A
C3265      C3270   1.401   1_556  A
C3266      C3267   1.396   1_556  A
C3266      H3275   1.084       .  S
C3267      C3268   1.410       .  A
C3267      H3276   1.083       .  S
C3268      C3269   1.408       .  A
C3269      C3270   1.400       .  A
C3269      H3277   1.083       .  S
C3270      H3278   1.083   1_554  S
C3279      C3280   1.409       .  A
C3279      C3284   1.408       .  A
C3280      C3281   1.394       .  A
C3280      H3293   1.083       .  S
C3281      C3282   1.396       .  A
C3281      H3294   1.084       .  S
C3282      C3283   1.402       .  A
C3282      C3285   1.438       .  S
C3283      C3284   1.402       .  A
C3283      H3295   1.084       .  S
C3284      H3296   1.083       .  S
C3285      C3286   1.205       .  T
C3286      C3287   1.438       .  S
C3287      C3288   1.395       .  A
C3287      C3292   1.402       .  A
C3288      C3289   1.392       .  A
C3288      H3297   1.084       .  S
C3289      C3290   1.409       .  A
C3289      H3298   1.083       .  S
C3290      C3291   1.408       .  A
C3291      C3292   1.402       .  A
C3291      H3299   1.083       .  S
C3292      H3300   1.083       .  S
C3301      C3302   1.408       .  A
C3301      C3306   1.408       .  A
C3302      C3303   1.403       .  A
C3302      H3315   1.083       .  S
C3303      C3304   1.402       .  A
C3303      H3316   1.083       .  S
C3304      C3305   1.397       .  A
C3304      C3307   1.439       .  S
C3305      C3306   1.393       .  A
C3305      H3317   1.084       .  S
C3306      H3318   1.083       .  S
C3307      C3308   1.206       .  T
C3308      C3309   1.439       .  S
C3309      C3310   1.403       .  A
C3309      C3314   1.396       .  A
C3310      C3311   1.405       .  A
C3310      H3319   1.083       .  S
C3311      C3312   1.408       .  A
C3311      H3320   1.083       .  S
C3312      C3313   1.410       .  A
C3313      C3314   1.392       .  A
C3313      H3321   1.083       .  S
C3314      H3322   1.084       .  S
C3323      C3324   1.409       .  A
C3323      C3328   1.408       .  A
C3324      C3325   1.399       .  A
C3324      H3337   1.083       .  S
C3325      C3326   1.400       .  A
C3325      H3338   1.083       .  S
C3326      C3327   1.398       .  A
C3326      C3329   1.438       .  S
C3327      C3328   1.395       .  A
C3327      H3339   1.084       .  S
C3328      H3340   1.083       .  S
C3329      C3330   1.205       .  T
C3330      C3331   1.438   1_655  S
C3331      C3332   1.399       .  A
C3331      C3336   1.399       .  A
C3332      C3333   1.397       .  A
C3332      H3341   1.084       .  S
C3333      C3334   1.407       .  A
C3333      H3342   1.083       .  S
C3334      C3335   1.410       .  A
C3335      C3336   1.398       .  A
C3335      H3343   1.083       .  S
C3336      H3344   1.084       .  S
C3345      C3346   1.410       .  A
C3345      C3350   1.410       .  A
C3346      C3347   1.405       .  A
C3346      H3359   1.083       .  S
C3347      C3348   1.402       .  A
C3347      H3360   1.083       .  S
C3348      C3349   1.400       .  A
C3348      C3351   1.450       .  S
C3349      C3350   1.400       .  A
C3349      H3361   1.084       .  S
C3350      H3362   1.083       .  S
C3351      C3352   1.212       .  T
C3352      C3353   1.450       .  S
C3353      C3354   1.401       .  A
C3353      C3358   1.401       .  A
C3354      C3355   1.402       .  A
C3354      H3363   1.084       .  S
C3355      C3356   1.411       .  A
C3355      H3364   1.083       .  S
C3356      C3357   1.409       .  A
C3357      C3358   1.402       .  A
C3357      H3365   1.083       .  S
C3358      H3366   1.083       .  S
C3367      C3368   1.409       .  A
C3367      C3372   1.407       .  A
C3368      C3369   1.402       .  A
C3368      H3381   1.083       .  S
C3369      C3370   1.400       .  A
C3369      H3382   1.083       .  S
C3370      C3371   1.398       .  A
C3370      C3373   1.438       .  S
C3371      C3372   1.393       .  A
C3371      H3383   1.084       .  S
C3372      H3384   1.083       .  S
C3373      C3374   1.205       .  T
C3374      C3375   1.438       .  S
C3375      C3376   1.401       .  A
C3375      C3380   1.398       .  A
C3376      C3377   1.403       .  A
C3376      H3385   1.083       .  S
C3377      C3378   1.409       .  A
C3377      H3386   1.083       .  S
C3378      C3379   1.407       .  A
C3379      C3380   1.394       .  A
C3379      H3387   1.083       .  S
C3380      H3388   1.084       .  S
C3389      C3390   1.409       .  A
C3389      C3394   1.409       .  A
C3390      C3391   1.397       .  A
C3390      H3403   1.083       .  S
C3391      C3392   1.398       .  A
C3391      H3404   1.084       .  S
C3392      C3393   1.400       .  A
C3392      C3395   1.440   1_455  S
C3393      C3394   1.400       .  A
C3393      H3405   1.083       .  S
C3394      H3406   1.083       .  S
C3395      C3396   1.206       .  T
C3396      C3397   1.440       .  S
C3397      C3398   1.400       .  A
C3397      C3402   1.398       .  A
C3398      C3399   1.400       .  A
C3398      H3407   1.083       .  S
C3399      C3400   1.408       .  A
C3399      H3408   1.083       .  S
C3400      C3401   1.409       .  A
C3401      C3402   1.396       .  A
C3401      H3409   1.083       .  S
C3402      H3410   1.084       .  S
C3411      C3412   1.407       .  A
C3411      C3416   1.409       .  A
C3412      C3413   1.401       .  A
C3412      H3425   1.083       .  S
C3413      C3414   1.402       .  A
C3413      H3426   1.083       .  S
C3414      C3415   1.396       .  A
C3414      C3417   1.438       .  S
C3415      C3416   1.394       .  A
C3415      H3427   1.084       .  S
C3416      H3428   1.083       .  S
C3417      C3418   1.205       .  T
C3418      C3419   1.438       .  S
C3419      C3420   1.403       .  A
C3419      C3424   1.394       .  A
C3420      C3421   1.403       .  A
C3420      H3429   1.083       .  S
C3421      C3422   1.408       .  A
C3421      H3430   1.083       .  S
C3422      C3423   1.410       .  A
C3423      C3424   1.392       .  A
C3423      H3431   1.083       .  S
C3424      H3432   1.084       .  S
C3433      C3434   1.408       .  A
C3433      C3438   1.410       .  A
C3434      C3435   1.403       .  A
C3434      H3447   1.083       .  S
C3435      C3436   1.403       .  A
C3435      H3448   1.083       .  S
C3436      C3437   1.395       .  A
C3436      C3439   1.439       .  S
C3437      C3438   1.392       .  A
C3437      H3449   1.084       .  S
C3438      H3450   1.083       .  S
C3439      C3440   1.206       .  T
C3440      C3441   1.440       .  S
C3441      C3442   1.402       .  A
C3441      C3446   1.396       .  A
C3442      C3443   1.402       .  A
C3442      H3451   1.083       .  S
C3443      C3444   1.408       .  A
C3443      H3452   1.083       .  S
C3444      C3445   1.410       .  A
C3445      C3446   1.396       .  A
C3445      H3453   1.083       .  S
C3446      H3454   1.084       .  S
C3455      C3456   1.408       .  A
C3455      C3460   1.410       .  A
C3456      C3457   1.402       .  A
C3456      H3469   1.083       .  S
C3457      C3458   1.401       .  A
C3457      H3470   1.083       .  S
C3458      C3459   1.399       .  A
C3458      C3461   1.446       .  S
C3459      C3460   1.399       .  A
C3459      H3471   1.084       .  S
C3460      H3472   1.083       .  S
C3461      C3462   1.210       .  T
C3462      C3463   1.446       .  S
C3463      C3464   1.400       .  A
C3463      C3468   1.401       .  A
C3464      C3465   1.400       .  A
C3464      H3473   1.084       .  S
C3465      C3466   1.409       .  A
C3465      H3474   1.083       .  S
C3466      C3467   1.410       .  A
C3467      C3468   1.402       .  A
C3467      H3475   1.083       .  S
C3468      H3476   1.083       .  S
C3477      C3478   1.407       .  A
C3477      C3482   1.408       .  A
C3478      C3479   1.395       .  A
C3478      H3491   1.083       .  S
C3479      C3480   1.398       .  A
C3479      H3492   1.084       .  S
C3480      C3481   1.400       .  A
C3480      C3483   1.439       .  S
C3481      C3482   1.401       .  A
C3481      H3493   1.083       .  S
C3482      H3494   1.083       .  S
C3483      C3484   1.206       .  T
C3484      C3485   1.439       .  S
C3485      C3486   1.401       .  A
C3485      C3490   1.398       .  A
C3486      C3487   1.402       .  A
C3486      H3495   1.083       .  S
C3487      C3488   1.408       .  A
C3487      H3496   1.083       .  S
C3488      C3489   1.407       .  A
C3489      C3490   1.395       .  A
C3489      H3497   1.083       .  S
C3490      H3498   1.084       .  S
C3499      C3500   1.408       .  A
C3499      C3504   1.409       .  A
C3500      C3501   1.398       .  A
C3500      H3513   1.083       .  S
C3501      C3502   1.399       .  A
C3501      H3514   1.084       .  S
C3502      C3503   1.401       .  A
C3502      C3505   1.443       .  S
C3503      C3504   1.401       .  A
C3503      H3515   1.083       .  S
C3504      H3516   1.083       .  S
C3505      C3506   1.208       .  T
C3506      C3507   1.443       .  S
C3507      C3508   1.400       .  A
C3507      C3512   1.399       .  A
C3508      C3509   1.401       .  A
C3508      H3517   1.084       .  S
C3509      C3510   1.410       .  A
C3509      H3518   1.083       .  S
C3510      C3511   1.408       .  A
C3511      C3512   1.399       .  A
C3511      H3519   1.083       .  S
C3512      H3520   1.083       .  S
C3521      C3522   1.406       .  A
C3521      C3526   1.407       .  A
C3522      C3523   1.396       .  A
C3522      H3535   1.083       .  S
C3523      C3524   1.399       .  A
C3523      H3536   1.084       .  S
C3524      C3525   1.402       .  A
C3524      C3527   1.442       .  S
C3525      C3526   1.402       .  A
C3525      H3537   1.083       .  S
C3526      H3538   1.083       .  S
C3527      C3528   1.207       .  T
C3528      C3529   1.442       .  S
C3529      C3530   1.402       .  A
C3529      C3534   1.399       .  A
C3530      C3531   1.402       .  A
C3530      H3539   1.083       .  S
C3531      C3532   1.407       .  A
C3531      H3540   1.083       .  S
C3532      C3533   1.407       .  A
C3533      C3534   1.396       .  A
C3533      H3541   1.083       .  S
C3534      H3542   1.084       .  S
C3543      C3544   1.409       .  A
C3543      C3548   1.408       .  A
C3544      C3545   1.397       .  A
C3544      H3557   1.083       .  S
C3545      C3546   1.399       .  A
C3545      H3558   1.084       .  S
C3546      C3547   1.400       .  A
C3546      C3549   1.441       .  S
C3547      C3548   1.401       .  A
C3547      H3559   1.083       .  S
C3548      H3560   1.083       .  S
C3549      C3550   1.207       .  T
C3550      C3551   1.441       .  S
C3551      C3552   1.398       .  A
C3551      C3556   1.401       .  A
C3552      C3553   1.396       .  A
C3552      H3561   1.083       .  S
C3553      C3554   1.407       .  A
C3553      H3562   1.083       .  S
C3554      C3555   1.411       .  A
C3555      C3556   1.401       .  A
C3555      H3563   1.083       .  S
C3556      H3564   1.084       .  S
C3565      C3566   1.410       .  A
C3565      C3570   1.407       .  A
C3566      C3567   1.394       .  A
C3566      H3579   1.083       .  S
C3567      C3568   1.396       .  A
C3567      H3580   1.084       .  S
C3568      C3569   1.402       .  A
C3568      C3571   1.438       .  S
C3569      C3570   1.401       .  A
C3569      H3581   1.083       .  S
C3570      H3582   1.083       .  S
C3571      C3572   1.205       .  T
C3572      C3573   1.438       .  S
C3573      C3574   1.396       .  A
C3573      C3578   1.401       .  A
C3574      C3575   1.394       .  A
C3574      H3583   1.084       .  S
C3575      C3576   1.409       .  A
C3575      H3584   1.083       .  S
C3576      C3577   1.409       .  A
C3577      C3578   1.402       .  A
C3577      H3585   1.083       .  S
C3578      H3586   1.083       .  S
C3587      C3588   1.410       .  A
C3587      C3592   1.408       .  A
C3588      C3589   1.395   1_556  A
C3588      H3601   1.083       .  S
C3589      C3590   1.397       .  A
C3589      H3602   1.084       .  S
C3590      C3591   1.402       .  A
C3590      C3593   1.441       .  S
C3591      C3592   1.402   1_554  A
C3591      H3603   1.083       .  S
C3592      H3604   1.083       .  S
C3593      C3594   1.207       .  T
C3594      C3595   1.442       .  S
C3595      C3596   1.398       .  A
C3595      C3600   1.402       .  A
C3596      C3597   1.397       .  A
C3596      H3605   1.084       .  S
C3597      C3598   1.410       .  A
C3597      H3606   1.083       .  S
C3598      C3599   1.407       .  A
C3599      C3600   1.402       .  A
C3599      H3607   1.083       .  S
C3600      H3608   1.083       .  S
C3609      C3610   1.407       .  A
C3609      C3614   1.408       .  A
C3610      C3611   1.397       .  A
C3610      H3623   1.083       .  S
C3611      C3612   1.399       .  A
C3611      H3624   1.084       .  S
C3612      C3613   1.403       .  A
C3612      C3615   1.445       .  S
C3613      C3614   1.405       .  A
C3613      H3625   1.083       .  S
C3614      H3626   1.083       .  S
C3615      C3616   1.209       .  T
C3616      C3617   1.444       .  S
C3617      C3618   1.402       .  A
C3617      C3622   1.399       .  A
C3618      C3619   1.402       .  A
C3618      H3627   1.083       .  S
C3619      C3620   1.408       .  A
C3619      H3628   1.083       .  S
C3620      C3621   1.407       .  A
C3621      C3622   1.397       .  A
C3621      H3629   1.083       .  S
C3622      H3630   1.084       .  S
C3631      C3632   1.410       .  A
C3631      C3636   1.408       .  A
C3632      C3633   1.399       .  A
C3632      H3645   1.083       .  S
C3633      C3634   1.399       .  A
C3633      H3646   1.084       .  S
C3634      C3635   1.401       .  A
C3634      C3637   1.445       .  S
C3635      C3636   1.402       .  A
C3635      H3647   1.083       .  S
C3636      H3648   1.083       .  S
C3637      C3638   1.209       .  T
C3638      C3639   1.445       .  S
C3639      C3640   1.402       .  A
C3639      C3644   1.399       .  A
C3640      C3641   1.403       .  A
C3640      H3649   1.083       .  S
C3641      C3642   1.409       .  A
C3641      H3650   1.083       .  S
C3642      C3643   1.410       .  A
C3643      C3644   1.399       .  A
C3643      H3651   1.083       .  S
C3644      H3652   1.084       .  S
C3653      C3654   1.410       .  A
C3653      C3658   1.409       .  A
C3654      C3655   1.400       .  A
C3654      H3667   1.083       .  S
C3655      C3656   1.399       .  A
C3655      H3668   1.084       .  S
C3656      C3657   1.401       .  A
C3656      C3659   1.445       .  S
C3657      C3658   1.402       .  A
C3657      H3669   1.083       .  S
C3658      H3670   1.083       .  S
C3659      C3660   1.209       .  T
C3660      C3661   1.445       .  S
C3661      C3662   1.401       .  A
C3661      C3666   1.399       .  A
C3662      C3663   1.402       .  A
C3662      H3671   1.083       .  S
C3663      C3664   1.409       .  A
C3663      H3672   1.083       .  S
C3664      C3665   1.409       .  A
C3665      C3666   1.398       .  A
C3665      H3673   1.083       .  S
C3666      H3674   1.084       .  S
C3675      C3676   1.410       .  A
C3675      C3680   1.409       .  A
C3676      C3677   1.400       .  A
C3676      H3689   1.083       .  S
C3677      C3678   1.400       .  A
C3677      H3690   1.084       .  S
C3678      C3679   1.400       .  A
C3678      C3681   1.444       .  S
C3679      C3680   1.401       .  A
C3679      H3691   1.083       .  S
C3680      H3692   1.083       .  S
C3681      C3682   1.209       .  T
C3682      C3683   1.444       .  S
C3683      C3684   1.401       .  A
C3683      C3688   1.399       .  A
C3684      C3685   1.402       .  A
C3684      H3693   1.083       .  S
C3685      C3686   1.409       .  A
C3685      H3694   1.083       .  S
C3686      C3687   1.408       .  A
C3687      C3688   1.397       .  A
C3687      H3695   1.083       .  S
C3688      H3696   1.084       .  S
C3697      C3698   1.408       .  A
C3697      C3702   1.408       .  A
C3698      C3699   1.395       .  A
C3698      H3711   1.083       .  S
C3699      C3700   1.398       .  A
C3699      H3712   1.084       .  S
C3700      C3701   1.400       .  A
C3700      C3703   1.439       .  S
C3701      C3702   1.400       .  A
C3701      H3713   1.083       .  S
C3702      H3714   1.083       .  S
C3703      C3704   1.206       .  T
C3704      C3705   1.439       .  S
C3705      C3706   1.397       .  A
C3705      C3710   1.402       .  A
C3706      C3707   1.393       .  A
C3706      H3715   1.084       .  S
C3707      C3708   1.407       .  A
C3707      H3716   1.083       .  S
C3708      C3709   1.408       .  A
C3709      C3710   1.403       .  A
C3709      H3717   1.083       .  S
C3710      H3718   1.083       .  S
C3719      C3720   1.409       .  A
C3719      C3724   1.409       .  A
C3720      C3721   1.401       .  A
C3720      H3733   1.083   1_556  S
C3721      C3722   1.400       .  A
C3721      H3734   1.083   1_556  S
C3722      C3723   1.399       .  A
C3722      C3725   1.442       .  S
C3723      C3724   1.398       .  A
C3723      H3735   1.084       .  S
C3724      H3736   1.083       .  S
C3725      C3726   1.207       .  T
C3726      C3727   1.442       .  S
C3727      C3728   1.401       .  A
C3727      C3732   1.398   1_556  A
C3728      C3729   1.402       .  A
C3728      H3737   1.083       .  S
C3729      C3730   1.409   1_556  A
C3729      H3738   1.083       .  S
C3730      C3731   1.409       .  A
C3731      C3732   1.396       .  A
C3731      H3739   1.083       .  S
C3732      H3740   1.084       .  S
C3741      C3742   1.409       .  A
C3741      C3746   1.409   1_556  A
C3742      C3743   1.398   1_556  A
C3742      H3755   1.083       .  S
C3743      C3744   1.399       .  A
C3743      H3756   1.084   1_554  S
C3744      C3745   1.400       .  A
C3744      C3747   1.442       .  S
C3745      C3746   1.401       .  A
C3745      H3757   1.083       .  S
C3746      H3758   1.083       .  S
C3747      C3748   1.207       .  T
C3748      C3749   1.442       .  S
C3749      C3750   1.399       .  A
C3749      C3754   1.400       .  A
C3750      C3751   1.399       .  A
C3750      H3759   1.084       .  S
C3751      C3752   1.409       .  A
C3751      H3760   1.083       .  S
C3752      C3753   1.408       .  A
C3753      C3754   1.399       .  A
C3753      H3761   1.083       .  S
C3754      H3762   1.083       .  S
C3763      C3764   1.410       .  A
C3763      C3768   1.408       .  A
C3764      C3765   1.397       .  A
C3764      H3777   1.083       .  S
C3765      C3766   1.398       .  A
C3765      H3778   1.084       .  S
C3766      C3767   1.402       .  A
C3766      C3769   1.442       .  S
C3767      C3768   1.402       .  A
C3767      H3779   1.083       .  S
C3768      H3780   1.083       .  S
C3769      C3770   1.207       .  T
C3770      C3771   1.441       .  S
C3771      C3772   1.398       .  A
C3771      C3776   1.401       .  A
C3772      C3773   1.397       .  A
C3772      H3781   1.084       .  S
C3773      C3774   1.409       .  A
C3773      H3782   1.083       .  S
C3774      C3775   1.408       .  A
C3775      C3776   1.401       .  A
C3775      H3783   1.083       .  S
C3776      H3784   1.083       .  S
C3785      C3786   1.407       .  A
C3785      C3790   1.409       .  A
C3786      C3787   1.402       .  A
C3786      H3799   1.083       .  S
C3787      C3788   1.402       .  A
C3787      H3800   1.083       .  S
C3788      C3789   1.398       .  A
C3788      C3791   1.442       .  S
C3789      C3790   1.396       .  A
C3789      H3801   1.084       .  S
C3790      H3802   1.083       .  S
C3791      C3792   1.208       .  T
C3792      C3793   1.442       .  S
C3793      C3794   1.403       .  A
C3793      C3798   1.396       .  A
C3794      C3795   1.404       .  A
C3794      H3803   1.083       .  S
C3795      C3796   1.408       .  A
C3795      H3804   1.083       .  S
C3796      C3797   1.411       .  A
C3797      C3798   1.395       .  A
C3797      H3805   1.083       .  S
C3798      H3806   1.084       .  S
C3807      C3808   1.409       .  A
C3807      C3812   1.410       .  A
C3808      C3809   1.404       .  A
C3808      H3821   1.083       .  S
C3809      C3810   1.402       .  A
C3809      H3822   1.083       .  S
C3810      C3811   1.400       .  A
C3810      C3813   1.448       .  S
C3811      C3812   1.400       .  A
C3811      H3823   1.084       .  S
C3812      H3824   1.083       .  S
C3813      C3814   1.211       .  T
C3814      C3815   1.448       .  S
C3815      C3816   1.400       .  A
C3815      C3820   1.401       .  A
C3816      C3817   1.401       .  A
C3816      H3825   1.084       .  S
C3817      C3818   1.410       .  A
C3817      H3826   1.083       .  S
C3818      C3819   1.409       .  A
C3819      C3820   1.402       .  A
C3819      H3827   1.083       .  S
C3820      H3828   1.083       .  S
C3829      C3830   1.408       .  A
C3829      C3834   1.407       .  A
C3830      C3831   1.397       .  A
C3830      H3843   1.083       .  S
C3831      C3832   1.399       .  A
C3831      H3844   1.084       .  S
C3832      C3833   1.402       .  A
C3832      C3835   1.444       .  S
C3833      C3834   1.403       .  A
C3833      H3845   1.083       .  S
C3834      H3846   1.083       .  S
C3835      C3836   1.209       .  T
C3836      C3837   1.444       .  S
C3837      C3838   1.403       .  A
C3837      C3842   1.398       .  A
C3838      C3839   1.405       .  A
C3838      H3847   1.083       .  S
C3839      C3840   1.408       .  A
C3839      H3848   1.083       .  S
C3840      C3841   1.409       .  A
C3841      C3842   1.395       .  A
C3841      H3849   1.083       .  S
C3842      H3850   1.084       .  S
C3851      C3852   1.407       .  A
C3851      C3856   1.408       .  A
C3852      C3853   1.400       .  A
C3852      H3865   1.083       .  S
C3853      C3854   1.400       .  A
C3853      H3866   1.083       .  S
C3854      C3855   1.398       .  A
C3854      C3857   1.438       .  S
C3855      C3856   1.396       .  A
C3855      H3867   1.084       .  S
C3856      H3868   1.083       .  S
C3857      C3858   1.205       .  T
C3858      C3859   1.438   1_545  S
C3859      C3860   1.399       .  A
C3859      C3864   1.399       .  A
C3860      C3861   1.397       .  A
C3860      H3869   1.084       .  S
C3861      C3862   1.408       .  A
C3861      H3870   1.083       .  S
C3862      C3863   1.409       .  A
C3863      C3864   1.398       .  A
C3863      H3871   1.083       .  S
C3864      H3872   1.083       .  S
C3873      C3874   1.409       .  A
C3873      C3878   1.409       .  A
C3874      C3875   1.400       .  A
C3874      H3887   1.083       .  S
C3875      C3876   1.400       .  A
C3875      H3888   1.083       .  S
C3876      C3877   1.398       .  A
C3876      C3879   1.441   1_655  S
C3877      C3878   1.398       .  A
C3877      H3889   1.084       .  S
C3878      H3890   1.083       .  S
C3879      C3880   1.207       .  T
C3880      C3881   1.441       .  S
C3881      C3882   1.398       .  A
C3881      C3886   1.400       .  A
C3882      C3883   1.397       .  A
C3882      H3891   1.084       .  S
C3883      C3884   1.408       .  A
C3883      H3892   1.083       .  S
C3884      C3885   1.409       .  A
C3885      C3886   1.400       .  A
C3885      H3893   1.083       .  S
C3886      H3894   1.083       .  S
C3895      C3896   1.408       .  A
C3895      C3900   1.407       .  A
C3896      C3897   1.402       .  A
C3896      H3909   1.083       .  S
C3897      C3898   1.401       .  A
C3897      H3910   1.083       .  S
C3898      C3899   1.399       .  A
C3898      C3901   1.440       .  S
C3899      C3900   1.396       .  A
C3899      H3911   1.084       .  S
C3900      H3912   1.083       .  S
C3901      C3902   1.206       .  T
C3902      C3903   1.440       .  S
C3903      C3904   1.397       .  A
C3903      C3908   1.402       .  A
C3904      C3905   1.393       .  A
C3904      H3913   1.084       .  S
C3905      C3906   1.409       .  A
C3905      H3914   1.083       .  S
C3906      C3907   1.409       .  A
C3907      C3908   1.404       .  A
C3907      H3915   1.083       .  S
C3908      H3916   1.083       .  S
C3917      C3918   1.408       .  A
C3917      C3922   1.409       .  A
C3918      C3919   1.399       .  A
C3918      H3931   1.083       .  S
C3919      C3920   1.400       .  A
C3919      H3932   1.084       .  S
C3920      C3921   1.400       .  A
C3920      C3923   1.442   1_565  S
C3921      C3922   1.400       .  A
C3921      H3933   1.084       .  S
C3922      H3934   1.083       .  S
C3923      C3924   1.207       .  T
C3924      C3925   1.441       .  S
C3925      C3926   1.401       .  A
C3925      C3930   1.398       .  A
C3926      C3927   1.402       .  A
C3926      H3935   1.083       .  S
C3927      C3928   1.409       .  A
C3927      H3936   1.083       .  S
C3928      C3929   1.409       .  A
C3929      C3930   1.396       .  A
C3929      H3937   1.083       .  S
C3930      H3938   1.084       .  S
C3939      C3940   1.408       .  A
C3939      C3944   1.409       .  A
C3940      C3941   1.400       .  A
C3940      H3953   1.083       .  S
C3941      C3942   1.400       .  A
C3941      H3954   1.083       .  S
C3942      C3943   1.400       .  A
C3942      C3945   1.443   1_655  S
C3943      C3944   1.399       .  A
C3943      H3955   1.084       .  S
C3944      H3956   1.083       .  S
C3945      C3946   1.208       .  T
C3946      C3947   1.443       .  S
C3947      C3948   1.401       .  A
C3947      C3952   1.400       .  A
C3948      C3949   1.401       .  A
C3948      H3957   1.083       .  S
C3949      C3950   1.408       .  A
C3949      H3958   1.083       .  S
C3950      C3951   1.408       .  A
C3951      C3952   1.399       .  A
C3951      H3959   1.083       .  S
C3952      H3960   1.083       .  S
C3961      C3962   1.410       .  A
C3961      C3966   1.407       .  A
C3962      C3963   1.394       .  A
C3962      H3975   1.083       .  S
C3963      C3964   1.396   1_554  A
C3963      H3976   1.084   1_554  S
C3964      C3965   1.402   1_556  A
C3964      C3967   1.440       .  S
C3965      C3966   1.402       .  A
C3965      H3977   1.083   1_554  S
C3966      H3978   1.083       .  S
C3967      C3968   1.206       .  T
C3968      C3969   1.440       .  S
C3969      C3970   1.397       .  A
C3969      C3974   1.401       .  A
C3970      C3971   1.396       .  A
C3970      H3979   1.084       .  S
C3971      C3972   1.409       .  A
C3971      H3980   1.083       .  S
C3972      C3973   1.409       .  A
C3973      C3974   1.402       .  A
C3973      H3981   1.083       .  S
C3974      H3982   1.083       .  S
C3983      C3984   1.408       .  A
C3983      C3988   1.408       .  A
C3984      C3985   1.402       .  A
C3984      H3997   1.083       .  S
C3985      C3986   1.402       .  A
C3985      H3998   1.083       .  S
C3986      C3987   1.396       .  A
C3986      C3989   1.439       .  S
C3987      C3988   1.394       .  A
C3987      H3999   1.084       .  S
C3988      H4000   1.083       .  S
C3989      C3990   1.205       .  T
C3990      C3991   1.439       .  S
C3991      C3992   1.402       .  A
C3991      C3996   1.396       .  A
C3992      C3993   1.402       .  A
C3992      H4001   1.083       .  S
C3993      C3994   1.407       .  A
C3993      H4002   1.083       .  S
C3994      C3995   1.411       .  A
C3995      C3996   1.395       .  A
C3995      H4003   1.083       .  S
C3996      H4004   1.084       .  S
C4005      C4006   1.408       .  A
C4005      C4010   1.408       .  A
C4006      C4007   1.394       .  A
C4006      H4019   1.083       .  S
C4007      C4008   1.397       .  A
C4007      H4020   1.084       .  S
C4008      C4009   1.402       .  A
C4008      C4011   1.440       .  S
C4009      C4010   1.403       .  A
C4009      H4021   1.083       .  S
C4010      H4022   1.083       .  S
C4011      C4012   1.206       .  T
C4012      C4013   1.440       .  S
C4013      C4014   1.401       .  A
C4013      C4018   1.398       .  A
C4014      C4015   1.402       .  A
C4014      H4023   1.083       .  S
C4015      C4016   1.407       .  A
C4015      H4024   1.083       .  S
C4016      C4017   1.408       .  A
C4017      C4018   1.395       .  A
C4017      H4025   1.083       .  S
C4018      H4026   1.084       .  S
C4027      C4028   1.409       .  A
C4027      C4032   1.410       .  A
C4028      C4029   1.401       .  A
C4028      H4041   1.083       .  S
C4029      C4030   1.401       .  A
C4029      H4042   1.084       .  S
C4030      C4031   1.399       .  A
C4030      C4033   1.444       .  S
C4031      C4032   1.399       .  A
C4031      H4043   1.083       .  S
C4032      H4044   1.083       .  S
C4033      C4034   1.208       .  T
C4034      C4035   1.443       .  S
C4035      C4036   1.398       .  A
C4035      C4040   1.402       .  A
C4036      C4037   1.397       .  A
C4036      H4045   1.084       .  S
C4037      C4038   1.408       .  A
C4037      H4046   1.083       .  S
C4038      C4039   1.408       .  A
C4039      C4040   1.403       .  A
C4039      H4047   1.083       .  S
C4040      H4048   1.083       .  S
C4049      C4050   1.410       .  A
C4049      C4054   1.407       .  A
C4050      C4051   1.398       .  A
C4050      H4063   1.083       .  S
C4051      C4052   1.399       .  A
C4051      H4064   1.084       .  S
C4052      C4053   1.400       .  A
C4052      C4055   1.441   1_655  S
C4053      C4054   1.400       .  A
C4053      H4065   1.083       .  S
C4054      H4066   1.083       .  S
C4055      C4056   1.207       .  T
C4056      C4057   1.441       .  S
C4057      C4058   1.400       .  A
C4057      C4062   1.398       .  A
C4058      C4059   1.401       .  A
C4058      H4067   1.084       .  S
C4059      C4060   1.411       .  A
C4059      H4068   1.083       .  S
C4060      C4061   1.407       .  A
C4061      C4062   1.397       .  A
C4061      H4069   1.083       .  S
C4062      H4070   1.084       .  S
C4071      C4072   1.410       .  A
C4071      C4076   1.409       .  A
C4072      C4073   1.398       .  A
C4072      H4085   1.083       .  S
C4073      C4074   1.399       .  A
C4073      H4086   1.084       .  S
C4074      C4075   1.401       .  A
C4074      C4077   1.444       .  S
C4075      C4076   1.402       .  A
C4075      H4087   1.083       .  S
C4076      H4088   1.083       .  S
C4077      C4078   1.208       .  T
C4078      C4079   1.444       .  S
C4079      C4080   1.400       .  A
C4079      C4084   1.400       .  A
C4080      C4081   1.400       .  A
C4080      H4089   1.084       .  S
C4081      C4082   1.411       .  A
C4081      H4090   1.083       .  S
C4082      C4083   1.408       .  A
C4083      C4084   1.399       .  A
C4083      H4091   1.083       .  S
C4084      H4092   1.083       .  S
C4093      C4094   1.408       .  A
C4093      C4098   1.408       .  A
C4094      C4095   1.403       .  A
C4094      H4107   1.083       .  S
C4095      C4096   1.402       .  A
C4095      H4108   1.083       .  S
C4096      C4097   1.398       .  A
C4096      C4099   1.442       .  S
C4097      C4098   1.395       .  A
C4097      H4109   1.084       .  S
C4098      H4110   1.083       .  S
C4099      C4100   1.207       .  T
C4100      C4101   1.441       .  S
C4101      C4102   1.402       .  A
C4101      C4106   1.398       .  A
C4102      C4103   1.403       .  A
C4102      H4111   1.083       .  S
C4103      C4104   1.408       .  A
C4103      H4112   1.083       .  S
C4104      C4105   1.408       .  A
C4105      C4106   1.394       .  A
C4105      H4113   1.083       .  S
C4106      H4114   1.084       .  S
C4115      C4116   1.409       .  A
C4115      C4120   1.411       .  A
C4116      C4117   1.401       .  A
C4116      H4129   1.083       .  S
C4117      C4118   1.400       .  A
C4117      H4130   1.083       .  S
C4118      C4119   1.401       .  A
C4118      C4121   1.448       .  S
C4119      C4120   1.403       .  A
C4119      H4131   1.083       .  S
C4120      H4132   1.083       .  S
C4121      C4122   1.211       .  T
C4122      C4123   1.447       .  S
C4123      C4124   1.402       .  A
C4123      C4128   1.399       .  A
C4124      C4125   1.403       .  A
C4124      H4133   1.083       .  S
C4125      C4126   1.408       .  A
C4125      H4134   1.083       .  S
C4126      C4127   1.410       .  A
C4127      C4128   1.399       .  A
C4127      H4135   1.083       .  S
C4128      H4136   1.084       .  S
C4137      C4138   1.410       .  A
C4137      C4142   1.410       .  A
C4138      C4139   1.404       .  A
C4138      H4151   1.083       .  S
C4139      C4140   1.402       .  A
C4139      H4152   1.083       .  S
C4140      C4141   1.399       .  A
C4140      C4143   1.447   1_655  S
C4141      C4142   1.400       .  A
C4141      H4153   1.084       .  S
C4142      H4154   1.083       .  S
C4143      C4144   1.210       .  T
C4144      C4145   1.446       .  S
C4145      C4146   1.399       .  A
C4145      C4150   1.402       .  A
C4146      C4147   1.399       .  A
C4146      H4155   1.083       .  S
C4147      C4148   1.408       .  A
C4147      H4156   1.083       .  S
C4148      C4149   1.411       .  A
C4149      C4150   1.403       .  A
C4149      H4157   1.083       .  S
C4150      H4158   1.083       .  S
C4159      C4160   1.410       .  A
C4159      C4164   1.408       .  A
C4160      C4161   1.396       .  A
C4160      H4173   1.083       .  S
C4161      C4162   1.397       .  A
C4161      H4174   1.084       .  S
C4162      C4163   1.401       .  A
C4162      C4165   1.441       .  S
C4163      C4164   1.402       .  A
C4163      H4175   1.083       .  S
C4164      H4176   1.083       .  S
C4165      C4166   1.207       .  T
C4166      C4167   1.440       .  S
C4167      C4168   1.399       .  A
C4167      C4172   1.400       .  A
C4168      C4169   1.398       .  A
C4168      H4177   1.084       .  S
C4169      C4170   1.408       .  A
C4169      H4178   1.083       .  S
C4170      C4171   1.408       .  A
C4171      C4172   1.399       .  A
C4171      H4179   1.083       .  S
C4172      H4180   1.083       .  S
C4181      C4182   1.409       .  A
C4181      C4186   1.410       .  A
C4182      C4183   1.403       .  A
C4182      H4195   1.083       .  S
C4183      C4184   1.402       .  A
C4183      H4196   1.083       .  S
C4184      C4185   1.397       .  A
C4184      C4187   1.442       .  S
C4185      C4186   1.396       .  A
C4185      H4197   1.084       .  S
C4186      H4198   1.083       .  S
C4187      C4188   1.208       .  T
C4188      C4189   1.442       .  S
C4189      C4190   1.402       .  A
C4189      C4194   1.398       .  A
C4190      C4191   1.402       .  A
C4190      H4199   1.083       .  S
C4191      C4192   1.408       .  A
C4191      H4200   1.083       .  S
C4192      C4193   1.409       .  A
C4193      C4194   1.397       .  A
C4193      H4201   1.083       .  S
C4194      H4202   1.084       .  S
C4203      C4204   1.408       .  A
C4203      C4208   1.411       .  A
C4204      C4205   1.402       .  A
C4204      H4217   1.083       .  S
C4205      C4206   1.401       .  A
C4205      H4218   1.083       .  S
C4206      C4207   1.400       .  A
C4206      C4209   1.447       .  S
C4207      C4208   1.400       .  A
C4207      H4219   1.084       .  S
C4208      H4220   1.083       .  S
C4209      C4210   1.210       .  T
C4210      C4211   1.447       .  S
C4211      C4212   1.401       .  A
C4211      C4216   1.400       .  A
C4212      C4213   1.401       .  A
C4212      H4221   1.083       .  S
C4213      C4214   1.410       .  A
C4213      H4222   1.083       .  S
C4214      C4215   1.410       .  A
C4215      C4216   1.401       .  A
C4215      H4223   1.083       .  S
C4216      H4224   1.083       .  S
