geometry optimzed in LAMMPS
_audit_creation_date              2020-12-01 
_audit_creation_method            'lammps2cif' 
_symmetry_space_group_name_H-M    'P1' 
_symmetry_Int_Tables_number       1 
_symmetry_cell_setting            triclinic 
loop_ 
_symmetry_equiv_pos_as_xyz 
  x,y,z 
_cell_length_a                    63.154369 
_cell_length_b                    63.27900263813036 
_cell_length_c                    35.266796847214586 
_cell_angle_alpha                 90.18326289141484 
_cell_angle_beta                  89.76531293882194 
_cell_angle_gamma                 89.95828904361329 
loop_ 
_atom_site_label 
_atom_site_type_symbol 
_atom_site_fract_x 
_atom_site_fract_y 
_atom_site_fract_z 
_atom_site_charge 
O1          O  0.82939292  0.38026934  0.44981964    -0.80800
O2          O  0.92223448  0.37927296  0.41332573    -0.65500
O3          O  0.86563196  0.36107282  0.42776783    -1.12100
C4          C  0.88465618  0.36527122  0.55824328     1.06100
O5          O  0.93359498  0.35505399  0.45287661    -0.78700
O6          O  0.90802679  0.33209698  0.50033160    -0.66300
Ni7        Ni  0.84309675  0.37515645  0.40262736     1.34900
C8          C  0.89004410  0.32319568  0.49747174     0.84800
O9          O  0.89143477  0.36847343  0.36469154    -0.79200
O10         O  0.85620498  0.37042796  0.35426198    -0.89500
C11         C  0.93727528  0.36848043  0.42690580     0.84400
O12         O  0.85306488  0.40354646  0.40424406    -0.67700
O13         O  0.90376931  0.36570506  0.54627634    -0.87000
C14         C  0.87105906  0.41166463  0.41023681     0.85200
C15         C  0.87529502  0.36814881  0.34284411     1.06800
H16         H  0.89430676  0.38769679  0.48037306     0.38600
O17         O  0.89426777  0.37283751  0.47320966    -1.09600
O18         O  0.87363553  0.33310535  0.48632347    -0.66300
Ni19       Ni  0.86624819  0.36271443  0.48222129     1.26300
O20         O  0.88739937  0.40063043  0.41678914    -0.66500
O21         O  0.86837011  0.36474480  0.53668627    -0.78800
C22         C  0.82332681  0.36448506  0.46871912     0.84600
O23         O  0.83704559  0.35376152  0.48666274    -0.66000
Ni24       Ni  0.91759354  0.36070015  0.49868326     1.27400
Ni25       Ni  0.89357967  0.37082893  0.41909829     1.26100
H26         H  0.86504817  0.34636386  0.42030072     0.39200
O27         O  0.82848399  0.37650454  0.94757270    -0.80800
O28         O  0.92192695  0.37977907  0.91388909    -0.65500
O29         O  0.86581586  0.35902803  0.92736012    -1.12100
C30         C  0.88354034  0.36475321  0.05826670     1.06100
O31         O  0.93342956  0.35555299  0.95347235    -0.78700
O32         O  0.90873078  0.33142679  0.00009631    -0.66300
Ni33       Ni  0.84270336  0.37138904  0.90101639     1.34900
C34         C  0.89081878  0.32246286  0.99782904     0.84800
O35         O  0.89150813  0.36817638  0.86459164    -0.79200
O36         O  0.85631730  0.36691328  0.85330667    -0.89500
C37         C  0.93708251  0.36912353  0.92765272     0.84400
O38         O  0.85129731  0.40019350  0.90083637    -0.67700
O39         O  0.90274406  0.36448704  0.04662235    -0.87000
C40         C  0.86852872  0.40970938  0.90760604     0.85200
C41         C  0.87557790  0.36709420  0.84230167     1.06800
H42         H  0.89325314  0.38693669  0.98049545     0.38600
O43         O  0.89359280  0.37218399  0.97333956    -1.09600
O44         O  0.87403038  0.33202383  0.98753963    -0.66300
Ni45       Ni  0.86580015  0.36125236  0.98190498     1.26300
O46         O  0.88528651  0.39978390  0.91663706    -0.66500
O47         O  0.86739405  0.36413515  0.03635425    -0.78800
C48         C  0.82294666  0.36065661  0.96674035     0.84600
O49         O  0.83690738  0.35106912  0.98603162    -0.66000
Ni50       Ni  0.91708153  0.36040261  0.99912931     1.27400
Ni51       Ni  0.89331066  0.37025637  0.91910524     1.26100
H52         H  0.86617585  0.34424673  0.92043025     0.39200
O53         O  0.82492796  0.12778831  0.17808734    -0.80800
O54         O  0.91796440  0.12840628  0.22348441    -0.65500
O55         O  0.86147055  0.14569407  0.20397670    -1.12100
C56         C  0.88432994  0.13891520  0.07492665     1.06100
O57         O  0.92963293  0.15231067  0.18335241    -0.78700
O58         O  0.90629052  0.17393048  0.13113315    -0.66300
Ni59       Ni  0.83823568  0.13105895  0.22631049     1.34900
C60         C  0.88838482  0.18286654  0.13443948     0.84800
O61         O  0.88541007  0.13874971  0.26930007    -0.79200
O62         O  0.85033950  0.13345804  0.27595792    -0.89500
C63         C  0.93307845  0.13924350  0.20996277     0.84400
O64         O  0.84837392  0.10279324  0.22194990    -0.67700
O65         O  0.90314315  0.13888765  0.08815074    -0.87000
C66         C  0.86679752  0.09491170  0.22111065     0.85200
C67         C  0.86882339  0.13622265  0.28975717     1.06800
H68         H  0.89158507  0.11874633  0.15469659     0.38600
O69         O  0.89151976  0.13359241  0.16120206    -1.09600
O70         O  0.87182698  0.17338250  0.14606653    -0.66300
Ni71       Ni  0.86401969  0.14398081  0.14971084     1.26300
O72         O  0.88335225  0.10627917  0.21883963    -0.66500
O73         O  0.86775155  0.14132748  0.09560388    -0.78800
C74         C  0.82061761  0.14387334  0.15838140     0.84600
O75         O  0.83553909  0.15388871  0.14238138    -0.66000
Ni76       Ni  0.91550521  0.14532786  0.13651725     1.27400
Ni77       Ni  0.88925509  0.13621527  0.21524458     1.26100
H78         H  0.86037186  0.16036255  0.21143150     0.39200
O79         O  0.82351329  0.12892927  0.68182982    -0.80800
O80         O  0.91762785  0.12990572  0.72128239    -0.65500
O81         O  0.86031483  0.14681838  0.70499545    -1.12100
C82         C  0.87803019  0.13395771  0.57499527     1.06100
O83         O  0.92836613  0.14993968  0.67392980    -0.78700
O84         O  0.90373271  0.16863032  0.61970821    -0.66300
Ni85       Ni  0.83769267  0.13210002  0.72899323     1.34900
C86         C  0.88698622  0.17944744  0.62454456     0.84800
O87         O  0.88569210  0.14181390  0.76881088    -0.79200
O88         O  0.85103318  0.13437214  0.77743025    -0.89500
C89         C  0.93253032  0.13915511  0.70342149     0.84400
O90         O  0.84769606  0.10386011  0.72329106    -0.67700
O91         O  0.89706864  0.13100142  0.58628301    -0.87000
C92         C  0.86621257  0.09619603  0.72481491     0.85200
C93         C  0.86957736  0.13804534  0.79008758     1.06800
H94         H  0.88716494  0.11723940  0.65697909     0.38600
O95         O  0.88847494  0.13228830  0.66100382    -1.09600
O96         O  0.87107772  0.17266064  0.64345670    -0.66300
Ni97       Ni  0.86123853  0.14385731  0.65082276     1.26300
O98         O  0.88252907  0.10783530  0.72299494    -0.66500
O99         O  0.86293368  0.13961175  0.59699904    -0.78800
C100        C  0.81855280  0.14523090  0.66338229     0.84600
O101        O  0.83294239  0.15495393  0.64533585    -0.66000
Ni102      Ni  0.91192009  0.14028438  0.63104801     1.27400
Ni103      Ni  0.88834706  0.13741135  0.71475846     1.26100
H104        H  0.85924569  0.16160942  0.71161836     0.39200
O105        O  0.35010389  0.44074196  0.08165812    -0.80800
O106        O  0.35040491  0.34703632  0.11970544    -0.65500
O107        O  0.37005549  0.40330006  0.10176266    -1.12100
C108        C  0.36598666  0.38269389  0.97273461     1.06100
O109        O  0.37567362  0.33650151  0.08120260    -0.78700
O110        O  0.39987469  0.36082348  0.03813046    -0.66300
Ni111      Ni  0.35867487  0.42694706  0.12771528     1.34900
C112        C  0.40783257  0.37913293  0.03976347     0.84800
O113        O  0.36256602  0.37927709  0.16706785    -0.79200
O114        O  0.36669037  0.41458256  0.17500459    -0.89500
C115        C  0.36045473  0.33216710  0.10328558     0.84400
O116        O  0.33040047  0.41722593  0.13638221    -0.67700
O117        O  0.36879212  0.36397957  0.98524188    -0.87000
C118        C  0.32116170  0.39960323  0.13171010     0.85200
C119        C  0.36565257  0.39572277  0.18774907     1.06800
H120        H  0.34273688  0.37287049  0.05186414     0.38600
O121        O  0.35753039  0.37384205  0.05854433    -1.09600
O122        O  0.39665792  0.39581709  0.04255837    -0.66300
Ni123      Ni  0.36672664  0.40185022  0.04788504     1.26300
O124        O  0.33034731  0.38346161  0.11752631    -0.66500
O125        O  0.36339622  0.39889384  0.99398746    -0.78800
C126        C  0.36306260  0.44540143  0.05533938     0.84600
O127        O  0.37423518  0.43085061  0.04046405    -0.66000
Ni128      Ni  0.37162826  0.35091520  0.03412829     1.27400
Ni129      Ni  0.35982890  0.37575877  0.11280630     1.26100
H130        H  0.38500554  0.40327278  0.10745118     0.39200
O131        O  0.35148002  0.44248100  0.58388042    -0.80800
O132        O  0.35120205  0.34691710  0.61793669    -0.65500
O133        O  0.37024203  0.40375965  0.60217616    -1.12100
C134        C  0.36241837  0.38441924  0.47216643     1.06100
O135        O  0.37605487  0.33791928  0.57772253    -0.78700
O136        O  0.39814002  0.36161456  0.53023986    -0.66300
Ni137      Ni  0.35883779  0.42705626  0.62926172     1.34900
C138        C  0.40684329  0.37940217  0.53518427     0.84800
O139        O  0.36417295  0.37822669  0.66621177    -0.79200
O140        O  0.36553498  0.41352747  0.67633180    -0.89500
C141        C  0.36131854  0.33262601  0.60007711     0.84400
O142        O  0.33032920  0.41750623  0.63539052    -0.67700
O143        O  0.36394767  0.36536832  0.48381890    -0.87000
C144        C  0.32141915  0.39957496  0.63253477     0.85200
C145        C  0.36552121  0.39441477  0.68802001     1.06800
H146        H  0.34196349  0.37473279  0.55237782     0.38600
O147        O  0.35691440  0.37508888  0.55809135    -1.09600
O148        O  0.39648872  0.39617248  0.54261418    -0.66300
Ni149      Ni  0.36675223  0.40295089  0.54822030     1.26300
O150        O  0.33077345  0.38320699  0.61958870    -0.66500
O151        O  0.36321382  0.40056929  0.49407965    -0.78800
C152        C  0.36428369  0.44667492  0.55694651     0.84600
O153        O  0.37493303  0.43185852  0.54162969    -0.66000
Ni154      Ni  0.36960274  0.35213670  0.53152326     1.27400
Ni155      Ni  0.36026930  0.37589071  0.61217166     1.26100
H156        H  0.38520943  0.40377542  0.60769569     0.39200
O157        O  0.14650968  0.44166114  0.30547864    -0.80800
O158        O  0.14718758  0.34540970  0.27106859    -0.65500
O159        O  0.12871319  0.40266246  0.28299186    -1.12100
C160        C  0.12465272  0.38395503  0.41355898     1.06100
O161        O  0.11978026  0.33668246  0.30570364    -0.78700
O162        O  0.09425026  0.36169424  0.34505648    -0.66300
Ni163      Ni  0.14270237  0.42559819  0.25900234     1.34900
C164        C  0.08681810  0.37997406  0.33942457     0.84800
O165        O  0.13830221  0.37660140  0.22059435    -0.79200
O166        O  0.13960844  0.41178062  0.21069705    -0.89500
C167        C  0.13611992  0.33132534  0.28726052     0.84400
O168        O  0.17124112  0.41549164  0.26092263    -0.67700
O169        O  0.12294637  0.36490993  0.40181971    -0.87000
C170        C  0.17917370  0.39712676  0.26433542     0.85200
C171        C  0.13931952  0.39269344  0.19872583     1.06800
H172        H  0.15220520  0.37262966  0.33894851     0.38600
O173        O  0.13784822  0.37360432  0.32973149    -1.09600
O174        O  0.09837180  0.39627242  0.33596257    -0.66300
Ni175      Ni  0.12838188  0.40180913  0.33720372     1.26300
O176        O  0.16831585  0.38108220  0.27429700    -0.66500
O177        O  0.12792685  0.39973376  0.39173695    -0.78800
C178        C  0.13231606  0.44535766  0.33052056     0.84600
O179        O  0.12043289  0.43060037  0.34190290    -0.66000
Ni180      Ni  0.12205852  0.35135055  0.35293820     1.27400
Ni181      Ni  0.13841751  0.37447918  0.27512300     1.26100
H182        H  0.11427499  0.40315817  0.27407930     0.39200
O183        O  0.14547566  0.44055297  0.80482104    -0.80800
O184        O  0.14568558  0.34539453  0.76427404    -0.65500
O185        O  0.12684669  0.40173950  0.78599709    -1.12100
C186        C  0.13757658  0.37951492  0.91385745     1.06100
O187        O  0.12169814  0.33557722  0.80533449    -0.78700
O188        O  0.10004366  0.35847535  0.85602610    -0.66300
Ni189      Ni  0.13753273  0.42546019  0.75923812     1.34900
C190        C  0.09173131  0.37667940  0.85444021     0.84800
O191        O  0.13103744  0.37729293  0.71961357    -0.79200
O192        O  0.12988004  0.41254623  0.71177335    -0.89500
C193        C  0.13647977  0.33080289  0.78260963     0.84400
O194        O  0.16615043  0.41624677  0.75197281    -0.67700
O195        O  0.13490055  0.36079560  0.90107902    -0.87000
C196        C  0.17538115  0.39839601  0.75350733     0.85200
C197        C  0.12864272  0.39367309  0.69884589     1.06800
H198        H  0.15622040  0.37139667  0.83151809     0.38600
O199        O  0.14116525  0.37208896  0.82687745    -1.09600
O200        O  0.10230353  0.39327419  0.84721352    -0.66300
Ni201      Ni  0.13186708  0.39980946  0.83955887     1.26300
O202        O  0.16586768  0.38170085  0.76430388    -0.66500
O203        O  0.13691026  0.39617307  0.89323689    -0.78800
C204        C  0.13337962  0.44393848  0.83324827     0.84600
O205        O  0.12387653  0.42857426  0.84893419    -0.66000
Ni206      Ni  0.12855855  0.34871779  0.85248476     1.27400
Ni207      Ni  0.13655077  0.37408464  0.77305467     1.26100
H208        H  0.11174090  0.40185566  0.78181902     0.39200
O209        O  0.16751666  0.62756579  0.45584638    -0.80800
O210        O  0.07481466  0.63099729  0.40976685    -0.65500
O211        O  0.13157298  0.64742294  0.43165954    -1.12100
C212        C  0.10705036  0.64284833  0.55925886     1.06100
O213        O  0.06333214  0.65620249  0.44763030    -0.78700
O214        O  0.08797433  0.67871672  0.49809906    -0.66300
Ni215      Ni  0.15493088  0.63343343  0.40800430     1.34900
C216        C  0.10680934  0.68573965  0.49993021     0.84800
O217        O  0.10806658  0.64035854  0.36500822    -0.79200
O218        O  0.14346532  0.63828141  0.35863268    -0.89500
C219        C  0.05974157  0.64252271  0.42184877     0.84400
O220        O  0.14431315  0.60536567  0.40789826    -0.67700
O221        O  0.08863441  0.64525516  0.54499318    -0.87000
C222        C  0.12607708  0.59741779  0.41200353     0.85200
C223        C  0.12490738  0.63955686  0.34471099     1.06800
H224        H  0.09911826  0.62171344  0.47977146     0.38600
O225        O  0.10054185  0.63642722  0.47300473    -1.09600
O226        O  0.12294725  0.67449054  0.49198113    -0.66300
Ni227      Ni  0.12865606  0.64471732  0.48585399     1.26300
O228        O  0.10949379  0.60849597  0.41707252    -0.66500
O229        O  0.12410099  0.64140947  0.53956169    -0.78800
C230        C  0.17242539  0.64268132  0.47746060     0.84600
O231        O  0.15781964  0.65256384  0.49486732    -0.66000
Ni232      Ni  0.07705868  0.65044691  0.49559405     1.27400
Ni233      Ni  0.10366166  0.63845255  0.41911102     1.26100
H234        H  0.13267755  0.66224462  0.42540855     0.39200
O235        O  0.16656223  0.63140594  0.94899621    -0.80800
O236        O  0.07186255  0.62948265  0.91535666    -0.65500
O237        O  0.12859293  0.64863546  0.92903672    -1.12100
C238        C  0.11047124  0.63908964  0.05985208     1.06100
O239        O  0.06223242  0.65319502  0.95753058    -0.78700
O240        O  0.08629418  0.67351993  0.01020155    -0.66300
Ni241      Ni  0.15161851  0.63588456  0.90271729     1.34900
C242        C  0.10345025  0.68359624  0.00560983     0.84800
O243        O  0.10257005  0.64139972  0.86630342    -0.79200
O244        O  0.13776951  0.63956002  0.85485795    -0.89500
C245        C  0.05731664  0.64004540  0.93177495     0.84400
O246        O  0.14284198  0.60716651  0.90449836    -0.67700
O247        O  0.09135833  0.63749687  0.04842449    -0.87000
C248        C  0.12509722  0.59817037  0.90861109     0.85200
C249        C  0.11856559  0.64094277  0.84388902     1.06800
H250        H  0.10167391  0.61991273  0.98011583     0.38600
O251        O  0.10084218  0.63481378  0.97443194    -1.09600
O252        O  0.11955075  0.67544667  0.98925700    -0.66300
Ni253      Ni  0.12819808  0.64622049  0.98341928     1.26300
O254        O  0.10804806  0.60841354  0.91477505    -0.66500
O255        O  0.12625752  0.64307725  0.03793349    -0.78800
C256        C  0.17125659  0.64678323  0.97033462     0.84600
O257        O  0.15671525  0.65660429  0.98803860    -0.66000
Ni258      Ni  0.07744130  0.64506769  0.00228238     1.27400
Ni259      Ni  0.10083141  0.63807973  0.92045328     1.26100
H260        H  0.12862945  0.66344400  0.92243365     0.39200
O261        O  0.16862889  0.88112907  0.18530188    -0.80800
O262        O  0.07304461  0.88056510  0.22156910    -0.65500
O263        O  0.13072867  0.86411929  0.20770420    -1.12100
C264        C  0.11335950  0.87153349  0.07652985     1.06100
O265        O  0.06369334  0.85799771  0.17702924    -0.78700
O266        O  0.08901749  0.83839855  0.12444192    -0.66300
Ni267      Ni  0.15300883  0.87923545  0.23177831     1.34900
C268        C  0.10585279  0.82810546  0.13125099     0.84800
O269        O  0.10435765  0.86981614  0.27017209    -0.79200
O270        O  0.13871941  0.87802691  0.28000312    -0.89500
C271        C  0.05872219  0.87015884  0.20444442     0.84400
O272        O  0.14303582  0.90722552  0.22321952    -0.67700
O273        O  0.09423877  0.87465109  0.08731127    -0.87000
C274        C  0.12447244  0.91480636  0.22348386     0.85200
C275        C  0.12007505  0.87371607  0.29194890     1.06800
H276        H  0.10354427  0.89183540  0.15667070     0.38600
O277        O  0.10266961  0.87689885  0.16208506    -1.09600
O278        O  0.12125073  0.83629693  0.14937291    -0.66300
Ni279      Ni  0.13018352  0.86552848  0.15343380     1.26300
O280        O  0.10797175  0.90327425  0.22274790    -0.66500
O281        O  0.12866729  0.86769686  0.09912529    -0.78800
C282        C  0.17314963  0.86473929  0.16628777     0.84600
O283        O  0.15857944  0.85481740  0.14918797    -0.66000
Ni284      Ni  0.07969880  0.86671263  0.13306109     1.27400
Ni285      Ni  0.10243780  0.87333111  0.21615450     1.26100
H286        H  0.13178718  0.84950402  0.21536105     0.39200
O287        O  0.16694591  0.88720544  0.68000697    -0.80800
O288        O  0.07485502  0.87897587  0.72652909    -0.65500
O289        O  0.13240685  0.86552186  0.70462509    -1.12100
C290        C  0.10873229  0.87185300  0.57666880     1.06100
O291        O  0.06543858  0.85453716  0.68567768    -0.78700
O292        O  0.08986947  0.83548733  0.63086513    -0.66300
Ni293      Ni  0.15490752  0.88046141  0.72812737     1.34900
C294        C  0.10843998  0.82782898  0.63239213     0.84800
O295        O  0.10844686  0.86993284  0.77089365    -0.79200
O296        O  0.14354863  0.87464389  0.77750135    -0.89500
C297        C  0.06053863  0.86745971  0.71196861     0.84400
O298        O  0.14317462  0.90805567  0.72930867    -0.67700
O299        O  0.08998171  0.87107327  0.59037845    -0.87000
C300        C  0.12447667  0.91508624  0.72717645     0.85200
C301        C  0.12509283  0.87132131  0.79134808     1.06800
H302        H  0.10038685  0.89118537  0.65766989     0.38600
O303        O  0.10159245  0.87630342  0.66329904    -1.09600
O304        O  0.12422722  0.83819067  0.64506816    -0.66300
Ni305      Ni  0.12976026  0.86817436  0.65058224     1.26300
O306        O  0.10842720  0.90328031  0.72225043    -0.66500
O307        O  0.12561887  0.87133366  0.59669519    -0.78800
C308        C  0.17296890  0.87245530  0.65829574     0.84600
O309        O  0.15911816  0.86106937  0.64209637    -0.66000
Ni310      Ni  0.07847425  0.86317503  0.63867588     1.27400
Ni311      Ni  0.10415147  0.87310448  0.71717375     1.26100
H312        H  0.13424426  0.85076382  0.71077986     0.39200
O313        O  0.64631259  0.56979541  0.07790895    -0.80800
O314        O  0.64652071  0.66605915  0.11759792    -0.65500
O315        O  0.62829910  0.60891653  0.10048300    -1.12100
C316        C  0.63188553  0.62995673  0.97099915     1.06100
O317        O  0.62112665  0.67541992  0.07927252    -0.78700
O318        O  0.59838400  0.65174909  0.03194057    -0.66300
Ni319      Ni  0.64131784  0.58549002  0.12459718     1.34900
C320        C  0.58985032  0.63389907  0.03732577     0.84800
O321        O  0.63492473  0.63403024  0.16519974    -0.79200
O322        O  0.63694001  0.59871545  0.17304373    -0.89500
C323        C  0.63609639  0.68052058  0.10114101     0.84400
O324        O  0.67000905  0.59538537  0.12580944    -0.67700
O325        O  0.63149673  0.64887429  0.98356275    -0.87000
C326        C  0.67776150  0.61394920  0.12629444     0.85200
C327        C  0.63577708  0.61755699  0.18615724     1.06800
H328        H  0.65502997  0.63892872  0.05005413     0.38600
O329        O  0.64019447  0.63841456  0.05680480    -1.09600
O330        O  0.60048213  0.61727770  0.04425034    -0.66300
Ni331      Ni  0.63033313  0.61060101  0.04646612     1.26300
O332        O  0.66732687  0.63022457  0.11643225    -0.66500
O333        O  0.63228711  0.61359145  0.99218723    -0.78800
C334        C  0.63290314  0.56665609  0.05145676     0.84600
O335        O  0.62192263  0.58193023  0.03917954    -0.66000
Ni336      Ni  0.62684233  0.66155126  0.03213876     1.27400
Ni337      Ni  0.63775836  0.63697571  0.11103464     1.26100
H338        H  0.61351730  0.60831901  0.10755539     0.39200
O339        O  0.64524851  0.56799228  0.58590764    -0.80800
O340        O  0.65289732  0.66372740  0.61561867    -0.65500
O341        O  0.62900827  0.60863011  0.60094549    -1.12100
C342        C  0.63855829  0.62586261  0.47125488     1.06100
O343        O  0.62825505  0.67435973  0.57652027    -0.78700
O344        O  0.60345949  0.65108699  0.53240420    -0.66300
Ni345      Ni  0.63747600  0.58486907  0.62960853     1.34900
C346        C  0.59430999  0.63335337  0.53491019     0.84800
O347        O  0.63738789  0.63422219  0.66466254    -0.79200
O348        O  0.63041259  0.59972622  0.67539815    -0.89500
C349        C  0.64369397  0.67858137  0.59795950     0.84400
O350        O  0.66637562  0.59218623  0.63751257    -0.67700
O351        O  0.63633700  0.64499916  0.48234482    -0.87000
C352        C  0.67731565  0.60879906  0.63303944     0.85200
C353        C  0.63318680  0.61873378  0.68669759     1.06800
H354        H  0.65960133  0.63567632  0.55044028     0.38600
O355        O  0.64467149  0.63587763  0.55652954    -1.09600
O356        O  0.60436995  0.61615797  0.53964178    -0.66300
Ni357      Ni  0.63368588  0.60842869  0.54728609     1.26300
O358        O  0.67002260  0.62543418  0.61739799    -0.66500
O359        O  0.63858721  0.60996953  0.49357574    -0.78800
C360        C  0.63416482  0.56475109  0.55641545     0.84600
O361        O  0.62435508  0.57993951  0.54092832    -0.66000
Ni362      Ni  0.63253395  0.65909194  0.53026462     1.27400
Ni363      Ni  0.64136007  0.63562491  0.61054992     1.26100
H364        H  0.61400019  0.61014621  0.60563092     0.39200
O365        O  0.84731193  0.56806849  0.31161805    -0.80800
O366        O  0.85029027  0.66285489  0.26839032    -0.65500
O367        O  0.86671043  0.60511054  0.28509731    -1.12100
C368        C  0.86782023  0.62739877  0.41482991     1.06100
O369        O  0.87705185  0.67104400  0.30420576    -0.78700
O370        O  0.90087668  0.64731970  0.34838096    -0.66300
Ni371      Ni  0.85155540  0.58215946  0.26360936     1.34900
C372        C  0.90846736  0.62910345  0.34219268     0.84800
O373        O  0.85891549  0.62965041  0.22034840    -0.79200
O374        O  0.85466768  0.59433496  0.21402644    -0.89500
C375        C  0.86103707  0.67683627  0.28566706     0.84400
O376        O  0.82351091  0.59324691  0.26604638    -0.67700
O377        O  0.86947760  0.64614598  0.40177063    -0.87000
C378        C  0.81642029  0.61199205  0.26634269     0.85200
C379        C  0.85652030  0.61290046  0.20020109     1.06800
H380        H  0.84314336  0.63670361  0.33772184     0.38600
O381        O  0.85768711  0.63549685  0.32933853    -1.09600
O382        O  0.89698209  0.61276945  0.33776094    -0.66300
Ni383      Ni  0.86678678  0.60739304  0.33931318     1.26300
O384        O  0.82800009  0.62807363  0.27279259    -0.66500
O385        O  0.86663865  0.61100757  0.39363447    -0.78800
C386        C  0.86165968  0.56382781  0.33562292     0.84600
O387        O  0.87411918  0.57833128  0.34658648    -0.66000
Ni388      Ni  0.87286307  0.65817238  0.35228332     1.27400
Ni389      Ni  0.85807576  0.63344334  0.27472284     1.26100
H390        H  0.88114832  0.60367364  0.27624048     0.39200
O391        O  0.85300266  0.56714444  0.79904274    -0.80800
O392        O  0.84830812  0.66235754  0.76938311    -0.65500
O393        O  0.87078660  0.60690149  0.78645768    -1.12100
C394        C  0.85786767  0.62497582  0.91528152     1.06100
O395        O  0.87195100  0.67274217  0.81064037    -0.78700
O396        O  0.89487594  0.64906262  0.85681362    -0.66300
Ni397      Ni  0.86310853  0.58336220  0.75637300     1.34900
C398        C  0.90376782  0.63116323  0.85549175     0.84800
O399        O  0.86434233  0.63216058  0.72173137    -0.79200
O400        O  0.87273505  0.59784898  0.71169030    -0.89500
C401        C  0.85734492  0.67720378  0.78754627     0.84400
O402        O  0.83481453  0.59148751  0.74434541    -0.67700
O403        O  0.86093153  0.64389622  0.90401027    -0.87000
C404        C  0.82374772  0.60804364  0.74905805     0.85200
C405        C  0.87002747  0.61680346  0.70021687     1.06800
H406        H  0.83929891  0.63477860  0.83406361     0.38600
O407        O  0.85437908  0.63459994  0.82934420    -1.09600
O408        O  0.89360805  0.61404954  0.85025671    -0.66300
Ni409      Ni  0.86440848  0.60689165  0.83977677     1.26300
O410        O  0.83061417  0.62426299  0.76670907    -0.66500
O411        O  0.85805524  0.60885373  0.89318478    -0.78800
C412        C  0.86364559  0.56312362  0.82872003     0.84600
O413        O  0.87267514  0.57798514  0.84684891    -0.66000
Ni414      Ni  0.86609188  0.65771688  0.85648089     1.27400
Ni415      Ni  0.85916490  0.63402666  0.77562632     1.26100
H416        H  0.88590503  0.60821282  0.78339422     0.39200
O417        O  0.64603297  0.94150006  0.05109775    -0.80800
O418        O  0.64874506  0.84562596  0.01897853    -0.65500
O419        O  0.62768572  0.90187752  0.03628326    -1.12100
C420        C  0.63702786  0.88313670  0.16530024     1.06100
O421        O  0.62400986  0.83654578  0.05884856    -0.78700
O422        O  0.60059209  0.86051737  0.10422949    -0.66300
Ni423      Ni  0.63688741  0.92531422  0.00734848     1.34900
C424        C  0.59250780  0.87882646  0.10397108     0.84800
O425        O  0.63333168  0.87624527  0.97152714    -0.79200
O426        O  0.62801881  0.91106361  0.96179350    -0.89500
C427        C  0.63964316  0.83139821  0.03847249     0.84400
O428        O  0.66538482  0.91661933  0.99696051    -0.67700
O429        O  0.63347417  0.86445787  0.15304955    -0.87000
C430        C  0.67540940  0.89930838  0.00037763     0.85200
C431        C  0.62904488  0.89192067  0.94999061     1.06800
H432        H  0.65748833  0.87298564  0.08452387     0.38600
O433        O  0.64251230  0.87360394  0.07920609    -1.09600
O434        O  0.60351636  0.89540199  0.09910829    -0.66300
Ni435      Ni  0.63309521  0.90151514  0.08980050     1.26300
O436        O  0.66752641  0.88303217  0.01639585    -0.66500
O437        O  0.63847550  0.89924598  0.14351423    -0.78800
C438        C  0.63485506  0.94536513  0.08048722     0.84600
O439        O  0.62522709  0.93039151  0.09711466    -0.66000
Ni440      Ni  0.62911682  0.85093320  0.10528245     1.27400
Ni441      Ni  0.63845321  0.87431682  0.02525706     1.26100
H442        H  0.61255538  0.90119078  0.03255060     0.39200
O443        O  0.64138103  0.93982682  0.55051887    -0.80800
O444        O  0.65141389  0.84451088  0.52239512    -0.65500
O445        O  0.62598880  0.89906235  0.53490798    -1.12100
C446        C  0.62816721  0.88186499  0.66486160     1.06100
O447        O  0.62522248  0.83328278  0.55784557    -0.78700
O448        O  0.59744775  0.85697640  0.59572671    -0.66300
Ni449      Ni  0.63441242  0.92286628  0.50648402     1.34900
C450        C  0.58867746  0.87495316  0.59508381     0.84800
O451        O  0.63726410  0.87385878  0.47194067    -0.79200
O452        O  0.62781540  0.90776670  0.46067252    -0.89500
C453        C  0.64191400  0.82946224  0.53910658     0.84400
O454        O  0.66345647  0.91558623  0.49862171    -0.67700
O455        O  0.62587201  0.86293490  0.65281059    -0.87000
C456        C  0.67473082  0.89926193  0.50400769     0.85200
C457        C  0.63206776  0.88894006  0.44977399     1.06800
H458        H  0.65473567  0.87174621  0.58882076     0.38600
O459        O  0.64013011  0.87186534  0.58076200    -1.09600
O460        O  0.59934777  0.89196913  0.59388234    -0.66300
Ni461      Ni  0.62891553  0.89939036  0.58895165     1.26300
O462        O  0.66777829  0.88321103  0.52215770    -0.66500
O463        O  0.63160352  0.89773347  0.64325061    -0.78800
C464        C  0.62903248  0.94325500  0.57860546     0.84600
O465        O  0.61944843  0.92794503  0.59420852    -0.66000
Ni466      Ni  0.62604137  0.84877033  0.60447897     1.27400
Ni467      Ni  0.63912947  0.87234879  0.52635101     1.26100
H468        H  0.61118181  0.89715015  0.52903213     0.39200
O469        O  0.85071465  0.93835220  0.32478125    -0.80800
O470        O  0.84737564  0.84374504  0.36698492    -0.65500
O471        O  0.86823879  0.89947614  0.34577341    -1.12100
C472        C  0.86125932  0.87692710  0.21758638     1.06100
O473        O  0.87204284  0.83328654  0.32773353    -0.78700
O474        O  0.89530744  0.85500858  0.27896062    -0.66300
Ni475      Ni  0.85803845  0.92385774  0.37111141     1.34900
C476        C  0.90431142  0.87280187  0.28138652     0.84800
O477        O  0.86192375  0.87597567  0.41218162    -0.79200
O478        O  0.86520139  0.91132052  0.41884408    -0.89500
C479        C  0.85681518  0.82885023  0.34953640     0.84400
O480        O  0.82921377  0.91548732  0.37909082    -0.67700
O481        O  0.86208577  0.85823001  0.23098658    -0.87000
C482        C  0.81973984  0.89776194  0.37867072     0.85200
C483        C  0.86484753  0.89258617  0.43240263     1.06800
H484        H  0.83898397  0.86979792  0.29867073     0.38600
O485        O  0.85393258  0.87006949  0.30436030    -1.09600
O486        O  0.89404432  0.88987516  0.28670259    -0.66300
Ni487      Ni  0.86446207  0.89739222  0.29201781     1.26300
O488        O  0.82826309  0.88087086  0.36595436    -0.66500
O489        O  0.86085212  0.89368345  0.23805297    -0.78800
C490        C  0.86362623  0.94142294  0.29743844     0.84600
O491        O  0.87347301  0.92582749  0.28306292    -0.66000
Ni492      Ni  0.86652800  0.84622548  0.28006816     1.27400
Ni493      Ni  0.85744754  0.87227254  0.35848319     1.26100
H494        H  0.88323835  0.89908934  0.35101476     0.39200
O495        O  0.85411868  0.93956457  0.83476625    -0.80800
O496        O  0.84317696  0.84423330  0.85546193    -0.65500
O497        O  0.86958234  0.89870057  0.84792550    -1.12100
C498        C  0.86791597  0.88474765  0.71681949     1.06100
O499        O  0.86911897  0.83338856  0.81890590    -0.78700
O500        O  0.89791859  0.85753262  0.78537884    -0.66300
Ni501      Ni  0.86082981  0.92199592  0.87772896     1.34900
C502        C  0.90681412  0.87542121  0.78687746     0.84800
O503        O  0.85743130  0.87255889  0.90908548    -0.79200
O504        O  0.86705740  0.90614708  0.92240585    -0.89500
C505        C  0.85208105  0.82953565  0.83650986     0.84400
O506        O  0.83170505  0.91482901  0.88424950    -0.67700
O507        O  0.87060254  0.86559439  0.72716454    -0.87000
C508        C  0.82018959  0.89919693  0.87530341     0.85200
C509        C  0.86273663  0.88722698  0.93241394     1.06800
H510        H  0.84091435  0.87292960  0.79118270     0.38600
O511        O  0.85545032  0.87270469  0.79961309    -1.09600
O512        O  0.89638335  0.89259668  0.78832694    -0.66300
Ni513      Ni  0.86689257  0.90028379  0.79391593     1.26300
O514        O  0.82750148  0.88319130  0.85739183    -0.66500
O515        O  0.86413284  0.89998711  0.73974677    -0.78800
C516        C  0.86680934  0.94368674  0.80768220     0.84600
O517        O  0.87666240  0.92883778  0.79096982    -0.66000
Ni518      Ni  0.86942920  0.85009229  0.77398951     1.27400
Ni519      Ni  0.85601383  0.87200647  0.85415268     1.26100
H520        H  0.88433819  0.89656247  0.85393193     0.39200
O521        O  0.66364899  0.13188546  0.19194511    -0.80800
O522        O  0.56952447  0.13100895  0.15467008    -0.65500
O523        O  0.62639859  0.14899332  0.16876772    -1.12100
C524        C  0.60583798  0.14890584  0.29963133     1.06100
O525        O  0.55844173  0.15713505  0.19124672    -0.78700
O526        O  0.58388301  0.18178459  0.23621274    -0.66300
Ni527      Ni  0.64930681  0.13440207  0.14475356     1.34900
C528        C  0.60232069  0.18959065  0.23316302     0.84800
O529        O  0.60095206  0.13922807  0.10603243    -0.79200
O530        O  0.63606571  0.13598325  0.09592999    -0.89500
C531        C  0.55466050  0.14263234  0.16703964     0.84400
O532        O  0.63954853  0.10611901  0.15049836    -0.67700
O533        O  0.58692658  0.15006364  0.28689589    -0.87000
C534        C  0.62129860  0.09816699  0.15491084     0.85200
C535        C  0.61697676  0.13680986  0.08420282     1.06800
H536        H  0.59634814  0.12462226  0.22328192     0.38600
O537        O  0.59698725  0.13909237  0.21469101    -1.09600
O538        O  0.61854923  0.17858106  0.22485192    -0.66300
Ni539      Ni  0.62511217  0.14888649  0.22350939     1.26300
O540        O  0.60472309  0.10922862  0.16047776    -0.66500
O541        O  0.62225659  0.14817114  0.27812904    -0.78800
C542        C  0.66846783  0.14830921  0.21043921     0.84600
O543        O  0.65409019  0.15816946  0.22841964    -0.66000
Ni544      Ni  0.57378631  0.15328663  0.23815513     1.27400
Ni545      Ni  0.59838470  0.13916098  0.16038974     1.26100
H546        H  0.62695449  0.16346839  0.16018523     0.39200
O547        O  0.66226033  0.12838232  0.69377034    -0.80800
O548        O  0.56843270  0.13180651  0.65282889    -0.65500
O549        O  0.62539015  0.14768572  0.67228485    -1.12100
C550        C  0.60376648  0.13473524  0.80037537     1.06100
O551        O  0.55800927  0.15447878  0.69657673    -0.78700
O552        O  0.58188059  0.17232497  0.75322313    -0.66300
Ni553      Ni  0.64825859  0.13394176  0.64678942     1.34900
C554        C  0.59950251  0.18180697  0.75011550     0.84800
O555        O  0.60052220  0.14361181  0.60730614    -0.79200
O556        O  0.63548200  0.13849242  0.59794058    -0.89500
C557        C  0.55390990  0.14289847  0.66786859     0.84400
O558        O  0.63823586  0.10565842  0.64820288    -0.67700
O559        O  0.58476919  0.13485647  0.78787844    -0.87000
C560        C  0.61991876  0.09766968  0.65036522     0.85200
C561        C  0.61681019  0.14227759  0.58577674     1.06800
H562        H  0.59589217  0.11900981  0.71876456     0.38600
O563        O  0.59581937  0.13406938  0.71433999    -1.09600
O564        O  0.61565340  0.17337830  0.73424830    -0.66300
Ni565      Ni  0.62337431  0.14390108  0.72623630     1.26300
O566        O  0.60321699  0.10883741  0.65363992    -0.66500
O567        O  0.62007294  0.13892408  0.77991136    -0.78800
C568        C  0.66678028  0.14293828  0.71703598     0.84600
O569        O  0.65207886  0.15291955  0.73399896    -0.66000
Ni570      Ni  0.57216020  0.14445836  0.74156542     1.27400
Ni571      Ni  0.59741171  0.13877524  0.66087195     1.26100
H572        H  0.62642844  0.16261327  0.66685608     0.39200
O573        O  0.66740270  0.38257466  0.42269249    -0.80800
O574        O  0.57370352  0.38042669  0.46492359    -0.65500
O575        O  0.63065802  0.36388722  0.44506650    -1.12100
C576        C  0.60905434  0.37195236  0.31644036     1.06100
O577        O  0.56300009  0.35678923  0.42361682    -0.78700
O578        O  0.58722891  0.33619226  0.37105105    -0.66300
Ni579      Ni  0.65361831  0.37757371  0.46996111     1.34900
C580        C  0.60547290  0.32786830  0.37259339     0.84800
O581        O  0.60584819  0.36898282  0.51009096    -0.79200
O582        O  0.64078912  0.37333811  0.51874661    -0.89500
C583        C  0.55892847  0.36931735  0.45092438     0.84400
O584        O  0.64363575  0.40590970  0.46871435    -0.67700
O585        O  0.59009503  0.37141465  0.32934976    -0.87000
C586        C  0.62522591  0.41379042  0.46755792     0.85200
C587        C  0.62205779  0.37029270  0.53151863     1.06800
H588        H  0.60057431  0.39156893  0.39724598     0.38600
O589        O  0.60098311  0.37661843  0.40268008    -1.09600
O590        O  0.62182690  0.33757236  0.38434484    -0.66300
Ni591      Ni  0.62888938  0.36698315  0.39092118     1.26300
O592        O  0.60864469  0.40271980  0.46272919    -0.66500
O593        O  0.62564313  0.37054112  0.33706159    -0.78800
C594        C  0.67223833  0.36708127  0.40175340     0.84600
O595        O  0.65775270  0.35777270  0.38334013    -0.66000
Ni596      Ni  0.57743573  0.36454412  0.37733480     1.27400
Ni597      Ni  0.60267140  0.37292358  0.45645756     1.26100
H598        H  0.63150322  0.34903113  0.45109327     0.39200
O599        O  0.66746408  0.38116207  0.92349314    -0.80800
O600        O  0.57326369  0.38207180  0.96277847    -0.65500
O601        O  0.62996691  0.36372653  0.94709144    -1.12100
C602        C  0.61074841  0.36949468  0.81677119     1.06100
O603        O  0.56205822  0.35868252  0.92110618    -0.78700
O604        O  0.58662930  0.33675677  0.87007653    -0.66300
Ni605      Ni  0.65302023  0.37767773  0.97095054     1.34900
C606        C  0.60377685  0.32669981  0.87563018     0.84800
O607        O  0.60459580  0.37083507  0.01048980    -0.79200
O608        O  0.63979089  0.37459045  0.01976584    -0.89500
C609        C  0.55829311  0.37134488  0.94845054     0.84400
O610        O  0.64354570  0.40623108  0.96759816    -0.67700
O611        O  0.59166829  0.37172687  0.82833984    -0.87000
C612        C  0.62536087  0.41453385  0.96473235     0.85200
C613        C  0.62092203  0.37160828  0.03189042     1.06800
H614        H  0.60213535  0.39114802  0.89586048     0.38600
O615        O  0.60142480  0.37633072  0.90225855    -1.09600
O616        O  0.62005580  0.33553825  0.88994212    -0.66300
Ni617      Ni  0.62886407  0.36486345  0.89289955     1.26300
O618        O  0.60859939  0.40362105  0.96070183    -0.66500
O619        O  0.62661747  0.36653925  0.83857722    -0.78800
C620        C  0.67213239  0.36519187  0.90336101     0.84600
O621        O  0.65743273  0.35457833  0.88787212    -0.66000
Ni622      Ni  0.57780950  0.36551389  0.87558642     1.27400
Ni623      Ni  0.60212314  0.37377895  0.95636671     1.26100
H624        H  0.63050531  0.34909732  0.95479083     0.39200
O625        O  0.33154477  0.62947141  0.43919045    -0.80800
O626        O  0.42600364  0.63210152  0.47166310    -0.65500
O627        O  0.36849802  0.64936409  0.45812268    -1.12100
C628        C  0.38610026  0.64584729  0.32742414     1.06100
O629        O  0.43633991  0.65637334  0.43110302    -0.78700
O630        O  0.40939797  0.68011041  0.38929326    -0.66300
Ni631      Ni  0.34600961  0.63599974  0.48497680     1.34900
C632        C  0.39068944  0.68743882  0.38977160     0.84800
O633        O  0.39469180  0.64277305  0.52089076    -0.79200
O634        O  0.35945821  0.64187520  0.53210332    -0.89500
C635        C  0.44075525  0.64291497  0.45655750     0.84400
O636        O  0.35634699  0.60781290  0.48540190    -0.67700
O637        O  0.40518344  0.64848839  0.33838267    -0.87000
C638        C  0.37415129  0.59937996  0.47853719     0.85200
C639        C  0.37858192  0.64383203  0.54304194     1.06800
H640        H  0.39826944  0.62303499  0.40508376     0.38600
O641        O  0.39731878  0.63777694  0.41213449    -1.09600
O642        O  0.37457555  0.67624865  0.39774757    -0.66300
Ni643      Ni  0.36868824  0.64658967  0.40395853     1.26300
O644        O  0.39048522  0.61010522  0.46971294    -0.66500
O645        O  0.37032357  0.64344472  0.34983419    -0.78800
C646        C  0.32550931  0.64450904  0.41849646     0.84600
O647        O  0.33925103  0.65476497  0.39972320    -0.66000
Ni648      Ni  0.41966046  0.65183254  0.38597960     1.27400
Ni649      Ni  0.39676705  0.64002398  0.46641966     1.26100
H650        H  0.36789745  0.66420592  0.46456605     0.39200
O651        O  0.32912483  0.62777552  0.93552775    -0.80800
O652        O  0.42240811  0.63194711  0.97340833    -0.65500
O653        O  0.36515696  0.64837912  0.95614093    -1.12100
C654        C  0.38574744  0.64214014  0.82684204     1.06100
O655        O  0.43275855  0.65637708  0.93325018    -0.78700
O656        O  0.40698905  0.67868062  0.88579505    -0.66300
Ni657      Ni  0.34257190  0.63451100  0.98222774     1.34900
C658        C  0.38817981  0.68574691  0.88475640     0.84800
O659        O  0.39029726  0.64239573  0.02090608    -0.79200
O660        O  0.35510326  0.64048767  0.03030230    -0.89500
C661        C  0.43718079  0.64257845  0.95810840     0.84400
O662        O  0.35333673  0.60639904  0.98383011    -0.67700
O663        O  0.40454188  0.64517695  0.83897815    -0.87000
C664        C  0.37157071  0.59847458  0.97891902     0.85200
C665        C  0.37398956  0.64243514  0.04265577     1.06800
H666        H  0.39617396  0.62189041  0.90593875     0.38600
O667        O  0.39494730  0.63670063  0.91232531    -1.09600
O668        O  0.37203389  0.67463524  0.89330862    -0.66300
Ni669      Ni  0.36650997  0.64491046  0.90181995     1.26300
O670        O  0.38765583  0.60952146  0.97013612    -0.66500
O671        O  0.36933274  0.64071031  0.84806076    -0.78800
C672        C  0.32334836  0.64270522  0.91429628     0.84600
O673        O  0.33721737  0.65259843  0.89532693    -0.66000
Ni674      Ni  0.41769482  0.65040805  0.88700569     1.27400
Ni675      Ni  0.39333459  0.63949017  0.96647443     1.26100
H676        H  0.36414615  0.66328068  0.96197427     0.39200
O677        O  0.32903709  0.88189635  0.20275434    -0.80800
O678        O  0.42353014  0.88175912  0.16644626    -0.65500
O679        O  0.36668113  0.86359948  0.18166947    -1.12100
C680        C  0.38603119  0.87059797  0.31176874     1.06100
O681        O  0.43441991  0.85731069  0.20634336    -0.78700
O682        O  0.40901202  0.83498781  0.25602814    -0.66300
Ni683      Ni  0.34374078  0.87695667  0.15612597     1.34900
C684        C  0.39064736  0.82688640  0.25411411     0.84800
O685        O  0.39233382  0.87144445  0.11802541    -0.79200
O686        O  0.35711326  0.87291623  0.10773824    -0.89500
C687        C  0.43836051  0.87066349  0.18021698     0.84400
O688        O  0.35340543  0.90537043  0.15842721    -0.67700
O689        O  0.40520016  0.86927511  0.30014893    -0.87000
C690        C  0.37120442  0.91403191  0.16418516     0.85200
C691        C  0.37623578  0.87177215  0.09609453     1.06800
H692        H  0.39587478  0.89067744  0.23331572     0.38600
O693        O  0.39559092  0.87588009  0.22649656    -1.09600
O694        O  0.37459275  0.83677808  0.24165932    -0.66300
Ni695      Ni  0.36756458  0.86624509  0.23594900     1.26300
O696        O  0.38791350  0.90335936  0.17018411    -0.66500
O697        O  0.36984859  0.86987412  0.29002049    -0.78800
C698        C  0.32420823  0.86662670  0.22405511     0.84600
O699        O  0.33868926  0.85693428  0.24170461    -0.66000
Ni700      Ni  0.41880252  0.86353340  0.25239327     1.27400
Ni701      Ni  0.39464373  0.87356610  0.17243907     1.26100
H702        H  0.36627676  0.84878151  0.17499681     0.39200
O703        O  0.32961156  0.88470233  0.70750017    -0.80800
O704        O  0.42052619  0.88080310  0.66079744    -0.65500
O705        O  0.36381530  0.86415545  0.68251053    -1.12100
C706        C  0.38690857  0.86823098  0.81077518     1.06100
O707        O  0.43208361  0.85623037  0.69973297    -0.78700
O708        O  0.40708372  0.83296346  0.74726525    -0.66300
Ni709      Ni  0.34066617  0.87820059  0.65892646     1.34900
C710        C  0.38834901  0.82569863  0.74852623     0.84800
O711        O  0.38719756  0.87087992  0.61625923    -0.79200
O712        O  0.35167312  0.87248539  0.60929372    -0.89500
C713        C  0.43568260  0.87007126  0.67441417     0.84400
O714        O  0.35119919  0.90618500  0.65719595    -0.67700
O715        O  0.40548692  0.86577790  0.79685855    -0.87000
C716        C  0.36928638  0.91419549  0.66224854     0.85200
C717        C  0.37040543  0.87055500  0.59591795     1.06800
H718        H  0.39572495  0.89005675  0.73130617     0.38600
O719        O  0.39442964  0.87532457  0.72441776    -1.09600
O720        O  0.37202575  0.83703179  0.74265783    -0.66300
Ni721      Ni  0.36621268  0.86681802  0.73696568     1.26300
O722        O  0.38580682  0.90323677  0.66828196    -0.66500
O723        O  0.37013846  0.87001893  0.79076457    -0.78800
C724        C  0.32331015  0.86927066  0.72686744     0.84600
O725        O  0.33695169  0.85895022  0.74545151    -0.66000
Ni726      Ni  0.41770867  0.86133032  0.74736939     1.27400
Ni727      Ni  0.39163656  0.87320747  0.67024978     1.26100
H728        H  0.36273699  0.84934307  0.67604787     0.39200
O729        O  0.34696811  0.06990798  0.06171062    -0.80800
O730        O  0.34065649  0.16644420  0.03230229    -0.65500
O731        O  0.36265114  0.11026427  0.04429660    -1.12100
C732        C  0.35553933  0.12787403  0.17566792     1.06100
O733        O  0.36589399  0.17515960  0.07128968    -0.78700
O734        O  0.38951535  0.15249903  0.11859084    -0.66300
Ni735      Ni  0.35192764  0.08682156  0.01697700     1.34900
C736        C  0.39898513  0.13524233  0.11182533     0.84800
O737        O  0.35432748  0.13665153  0.98182276    -0.79200
O738        O  0.35633220  0.10158348  0.97016113    -0.89500
C739        C  0.35017055  0.18049485  0.05153453     0.84400
O740        O  0.32274593  0.09471967  0.01545716    -0.67700
O741        O  0.35559798  0.14709409  0.16478295    -0.87000
C742        C  0.31296185  0.11222685  0.01846844     0.85200
C743        C  0.35593072  0.12083584  0.95928313     1.06800
H744        H  0.33372325  0.13712327  0.09710054     0.38600
O745        O  0.34858222  0.13763075  0.09049868    -1.09600
O746        O  0.38942451  0.11843804  0.10206677    -0.66300
Ni747      Ni  0.36000459  0.11028179  0.09852147     1.26300
O748        O  0.32197358  0.12909797  0.02987932    -0.66500
O749        O  0.35715391  0.11203130  0.15306305    -0.78800
C750        C  0.36017790  0.06648310  0.08815969     0.84600
O751        O  0.36989667  0.08181059  0.10362035    -0.66000
Ni752      Ni  0.36051814  0.16078886  0.11747961     1.27400
Ni753      Ni  0.35116177  0.13781945  0.03610771     1.26100
H754        H  0.37749860  0.11101488  0.03775403     0.39200
O755        O  0.34271488  0.07116856  0.56620159    -0.80800
O756        O  0.34058908  0.16632524  0.52795500    -0.65500
O757        O  0.36072413  0.11003139  0.54524082    -1.12100
C758        C  0.35620921  0.13143925  0.67472031     1.06100
O759        O  0.36633386  0.17584266  0.56535141    -0.78700
O760        O  0.39039014  0.15299908  0.61120054    -0.66300
Ni761      Ni  0.34950727  0.08615233  0.51995731     1.34900
C762        C  0.39886741  0.13499520  0.60678374     0.84800
O763        O  0.35330214  0.13452833  0.48054109    -0.79200
O764        O  0.35589320  0.09912752  0.47226760    -0.89500
C765        C  0.35053874  0.18077754  0.54541215     0.84400
O766        O  0.32084919  0.09538692  0.51459033    -0.67700
O767        O  0.35792095  0.15028004  0.66222036    -0.87000
C768        C  0.31154960  0.11317024  0.51739469     0.85200
C769        C  0.35558194  0.11806273  0.45973472     1.06800
H770        H  0.33330790  0.13989929  0.59598746     0.38600
O771        O  0.34810412  0.13935572  0.58894087    -1.09600
O772        O  0.38800820  0.11837542  0.60139480    -0.66300
Ni773      Ni  0.35814571  0.11168841  0.59922230     1.26300
O774        O  0.32083386  0.12966925  0.52978299    -0.66500
O775        O  0.35561638  0.11498110  0.65348233    -0.78800
C776        C  0.35589943  0.06769524  0.59276334     0.84600
O777        O  0.36645449  0.08293920  0.60655779    -0.66000
Ni778      Ni  0.36180116  0.16259661  0.61309685     1.27400
Ni779      Ni  0.35028927  0.13762052  0.53456400     1.26100
H780        H  0.37558403  0.11014620  0.53862904     0.39200
O781        O  0.14091010  0.07167304  0.33219083    -0.80800
O782        O  0.14183782  0.16634741  0.37097593    -0.65500
O783        O  0.12163707  0.11018292  0.35274049    -1.12100
C784        C  0.12352562  0.13173821  0.22438414     1.06100
O785        O  0.11506455  0.17619735  0.33619706    -0.78700
O786        O  0.09018401  0.15194242  0.29518198    -0.66300
Ni787      Ni  0.13239704  0.08632909  0.37819086     1.34900
C788        C  0.08279461  0.13340826  0.29587636     0.84800
O789        O  0.12986367  0.13412621  0.41836781    -0.79200
O790        O  0.12422771  0.09911682  0.42536556    -0.89500
C791        C  0.13122562  0.18096676  0.35536664     0.84400
O792        O  0.16058630  0.09610174  0.38736050    -0.67700
O793        O  0.11973760  0.15004994  0.23836166    -0.87000
C794        C  0.17008558  0.11365674  0.38307514     0.85200
C795        C  0.12624945  0.11781428  0.43885222     1.06800
H796        H  0.14809036  0.14139215  0.30213303     0.38600
O797        O  0.13346489  0.13994058  0.30988772    -1.09600
O798        O  0.09453890  0.11710720  0.29553125    -0.66300
Ni799      Ni  0.12457525  0.11190900  0.29887134     1.26300
O800        O  0.16153555  0.12959002  0.36722495    -0.66500
O801        O  0.12707576  0.11548166  0.24488774    -0.78800
C802        C  0.12855318  0.06799971  0.30436421     0.84600
O803        O  0.11754416  0.08290796  0.29073016    -0.66000
Ni804      Ni  0.11795563  0.16259901  0.28802521     1.27400
Ni805      Ni  0.13206771  0.13768554  0.36412488     1.26100
H806        H  0.10673007  0.11042957  0.35896254     0.39200
O807        O  0.13918829  0.07116458  0.83976799    -0.80800
O808        O  0.14502357  0.16678323  0.86669362    -0.65500
O809        O  0.12185739  0.11137077  0.85405742    -1.12100
C810        C  0.12906296  0.12786647  0.72368341     1.06100
O811        O  0.11945171  0.17634961  0.82874273    -0.78700
O812        O  0.09449416  0.15253747  0.78535420    -0.66300
Ni813      Ni  0.13067397  0.08799841  0.88331732     1.34900
C814        C  0.08573612  0.13460787  0.78806576     0.84800
O815        O  0.13024813  0.13731000  0.91707589    -0.79200
O816        O  0.12231205  0.10301034  0.92837525    -0.89500
C817        C  0.13535371  0.18117708  0.84863859     0.84400
O818        O  0.15930797  0.09629988  0.89309189    -0.67700
O819        O  0.12674310  0.14704557  0.73439280    -0.87000
C820        C  0.17013718  0.11287450  0.88682444     0.85200
C821        C  0.12475026  0.12218481  0.93911053     1.06800
H822        H  0.15137350  0.13863258  0.80176296     0.38600
O823        O  0.13652482  0.13852677  0.80845959    -1.09600
O824        O  0.09631713  0.11773518  0.79321743    -0.66300
Ni825      Ni  0.12601302  0.11086062  0.80029907     1.26300
O826        O  0.16279215  0.12879308  0.86900973    -0.66500
O827        O  0.13018540  0.11211569  0.74629307    -0.78800
C828        C  0.12742944  0.06731386  0.81118478     0.84600
O829        O  0.11741034  0.08220652  0.79533572    -0.66000
Ni830      Ni  0.12337987  0.16122933  0.78230488     1.27400
Ni831      Ni  0.13386889  0.13851405  0.86273620     1.26100
H832        H  0.10685818  0.11276984  0.85902175     0.39200
C833        C  0.11350873  0.11225115  0.62381415    -0.22400
C834        C  0.12915488  0.12257695  0.60262871     0.09600
C835        C  0.14553208  0.13350360  0.62138663     0.10000
C836        C  0.14557088  0.13425962  0.66117329    -0.17300
C837        C  0.12978037  0.12408002  0.68248067    -0.27700
C838        C  0.11354291  0.11287038  0.66351413     0.18300
C839        C  0.12815692  0.12140696  0.56078293     0.12300
C840        C  0.16294846  0.14425008  0.59942622    -0.12100
H841        H  0.15781810  0.14306180  0.67577093     0.12600
C842        C  0.09543680  0.10222871  0.68381562    -0.22900
H843        H  0.10096081  0.10389360  0.60917045     0.08200
C844        C  0.13393655  0.10280297  0.54140416     0.04600
C845        C  0.13270620  0.10224150  0.50186113    -0.20100
C846        C  0.12587303  0.11985226  0.48084499    -0.12400
C847        C  0.11990461  0.13854154  0.50046485     0.13300
C848        C  0.12105786  0.13899953  0.54030477    -0.22800
C849        C  0.14182053  0.08363864  0.56237728    -0.05900
H850        H  0.13762051  0.08795828  0.48723404     0.14800
C851        C  0.11189144  0.15782692  0.48002929    -0.16100
H852        H  0.11645404  0.15315397  0.55565795     0.09100
H853        H  0.09533044  0.08514559  0.67654474     0.07000
H854        H  0.08023013  0.10933860  0.67459874     0.08200
H855        H  0.09627172  0.10375295  0.71498042     0.07200
H856        H  0.15617216  0.15674996  0.58110003     0.02100
H857        H  0.17135783  0.13247935  0.58142666     0.02600
H858        H  0.17471229  0.15175046  0.61852954     0.06100
H859        H  0.14618090  0.07058682  0.54270324     0.05100
H860        H  0.12931315  0.07768838  0.58177006    -0.00700
H861        H  0.15606781  0.08786709  0.57910057     0.00800
H862        H  0.09810889  0.15353190  0.46214649     0.04400
H863        H  0.12462700  0.16462511  0.46207740     0.06400
H864        H  0.10671721  0.17036058  0.50016195     0.07300
C865        C  0.13158849  0.11271323  0.12169728    -0.22400
C866        C  0.12215876  0.12933647  0.10176326     0.09600
C867        C  0.11279222  0.14617647  0.12180054     0.10000
C868        C  0.11336999  0.14622661  0.16150065    -0.17300
C869        C  0.12316542  0.12982415  0.18208512    -0.27700
C870        C  0.13220378  0.11263263  0.16159466     0.18300
C871        C  0.12241448  0.12890550  0.05978637     0.12300
C872        C  0.10238339  0.16422721  0.10121056    -0.12100
H873        H  0.10603581  0.15931343  0.17647071     0.12600
C874        C  0.14288918  0.09433700  0.18099901    -0.22900
H875        H  0.13863781  0.09979175  0.10580595     0.08200
C876        C  0.14006391  0.13621124  0.03898973     0.04600
C877        C  0.13978615  0.13504955  0.99925110    -0.20100
C878        C  0.12233116  0.12657159  0.97996612    -0.12400
C879        C  0.10433631  0.11996650  0.00083920     0.13300
C880        C  0.10466089  0.12115088  0.04056035    -0.22800
C881        C  0.15927646  0.14491152  0.05879402    -0.05900
H882        H  0.15363447  0.13990832  0.98322743     0.14800
C883        C  0.08446463  0.11191593  0.98219939    -0.16100
H884        H  0.09099604  0.11591299  0.05669698     0.09100
H885        H  0.14961295  0.08287178  0.16028555     0.07000
H886        H  0.13127038  0.08565284  0.19870174     0.08200
H887        H  0.15608371  0.10018589  0.19887918     0.07200
H888        H  0.08910194  0.15818592  0.08374576     0.02100
H889        H  0.11411414  0.17211020  0.08248033     0.02600
H890        H  0.09593336  0.17624799  0.12116751     0.06100
H891        H  0.17167369  0.14994032  0.03829672     0.05100
H892        H  0.16619789  0.13263453  0.07744288    -0.00700
H893        H  0.15470859  0.15883619  0.07623337     0.00800
H894        H  0.08162739  0.09528246  0.99074533     0.04400
H895        H  0.08513309  0.11265919  0.95083110     0.06400
H896        H  0.07078569  0.12170390  0.99151358     0.07300
C897        C  0.25552578  0.13251430  0.49151860    -0.22400
C898        C  0.25013085  0.11786112  0.46316355     0.09600
C899        C  0.26428099  0.10128850  0.45457434     0.10000
C900        C  0.28360482  0.09991114  0.47389145    -0.17300
C901        C  0.28950341  0.11475126  0.50186289    -0.27700
C902        C  0.27505745  0.13129127  0.51085207     0.18300
C903        C  0.22916651  0.11912310  0.44394054     0.12300
C904        C  0.25891609  0.08489502  0.42501622    -0.12100
H905        H  0.29445230  0.08733321  0.46612910     0.12600
C906        C  0.27981369  0.14751739  0.54100390    -0.22900
H907        H  0.24440472  0.14501374  0.49841439     0.08200
C908        C  0.21096799  0.11026759  0.46077337     0.04600
C909        C  0.19223600  0.10875696  0.43969351    -0.20100
C910        C  0.19099438  0.11597140  0.40201239    -0.12400
C911        C  0.20902633  0.12567994  0.38559361     0.13300
C912        C  0.22788544  0.12709201  0.40681679    -0.22800
C913        C  0.21142100  0.10200488  0.50079845    -0.05900
H914        H  0.17831862  0.10190057  0.45291170     0.14800
C915        C  0.20936775  0.13381626  0.34551330    -0.16100
H916        H  0.24193015  0.13381247  0.39384164     0.09100
H917        H  0.26612564  0.15819839  0.54611378     0.07000
H918        H  0.29336048  0.15752675  0.53213853     0.08200
H919        H  0.28353931  0.13950010  0.56813597     0.07200
H920        H  0.25678901  0.09258425  0.39704594     0.02100
H921        H  0.24405195  0.07666038  0.43307765     0.02600
H922        H  0.27159957  0.07283257  0.42200323     0.06100
H923        H  0.19583439  0.09548737  0.50960654     0.05100
H924        H  0.21553219  0.11500341  0.52065300    -0.00700
H925        H  0.22340479  0.08923435  0.50312919     0.00800
H926        H  0.21236016  0.15110511  0.34578992     0.04400
H927        H  0.19445448  0.13081696  0.33004873     0.06400
H928        H  0.22228860  0.12588976  0.32942733     0.07300
C929        C  0.36644744  0.14124525  0.85904507    -0.22400
C930        C  0.35331561  0.12766211  0.83820207     0.09600
C931        C  0.34103077  0.11243031  0.85715363     0.10000
C932        C  0.34218657  0.11104453  0.89665555    -0.17300
C933        C  0.35560326  0.12428431  0.91782560    -0.27700
C934        C  0.36793135  0.13966949  0.89872382     0.18300
C935        C  0.35360504  0.12864580  0.79633897     0.12300
C936        C  0.32693568  0.09742367  0.83562685    -0.12100
H937        H  0.33255733  0.09939469  0.91119002     0.12600
C938        C  0.38351038  0.15391485  0.91853810    -0.22900
H939        H  0.37605469  0.15274985  0.84410980     0.08200
C940        C  0.33948922  0.14159927  0.77609364     0.04600
C941        C  0.34035144  0.14167243  0.73631182    -0.20100
C942        C  0.35497490  0.12903639  0.71636808    -0.12400
C943        C  0.36921082  0.11614592  0.73698788     0.13300
C944        C  0.36814158  0.11597727  0.77667531    -0.22800
C945        C  0.32367771  0.15540714  0.79651030    -0.05900
H946        H  0.32965704  0.15178071  0.72063658     0.14800
C947        C  0.38644482  0.10321302  0.71865961    -0.16100
H948        H  0.37900467  0.10612248  0.79252813     0.09100
H949        H  0.37866424  0.17064806  0.91480911     0.07000
H950        H  0.39947505  0.15169072  0.90581041     0.08200
H951        H  0.38497384  0.15069728  0.94921351     0.07200
H952        H  0.33661113  0.08776951  0.81572375     0.02100
H953        H  0.31499297  0.10644229  0.81930181     0.02600
H954        H  0.31837180  0.08649490  0.85491261     0.06100
H955        H  0.31385010  0.16461621  0.77639810     0.05100
H956        H  0.33211792  0.16670971  0.81524143    -0.00700
H957        H  0.31293578  0.14551928  0.81399126     0.00800
H958        H  0.40206182  0.10820567  0.72993372     0.04400
H959        H  0.38702149  0.10510600  0.68768094     0.06400
H960        H  0.38399739  0.08623811  0.72519593     0.07300
C961        C  0.36895437  0.13520909  0.35906697    -0.22400
C962        C  0.35471561  0.12254004  0.33873354     0.09600
C963        C  0.34089412  0.10887372  0.35814207     0.10000
C964        C  0.34180653  0.10791563  0.39764950    -0.17300
C965        C  0.35610390  0.12041116  0.41827472    -0.27700
C966        C  0.36988824  0.13431247  0.39881276     0.18300
C967        C  0.35442815  0.12368843  0.29701016     0.12300
C968        C  0.32505577  0.09545787  0.33716212    -0.12100
H969        H  0.33107514  0.09746783  0.41266943     0.12600
C970        C  0.38616923  0.14777452  0.41857066    -0.22900
H971        H  0.37953560  0.14567635  0.34377708     0.08200
C972        C  0.34209045  0.13886428  0.27816436     0.04600
C973        C  0.34197134  0.13908985  0.23848013    -0.20100
C974        C  0.35395744  0.12450054  0.21714218    -0.12400
C975        C  0.36601696  0.10900727  0.23633393     0.13300
C976        C  0.36606308  0.10881039  0.27611739    -0.22800
C977        C  0.32918592  0.15486764  0.29998820    -0.05900
H978        H  0.33271105  0.15099789  0.22398761     0.14800
C979        C  0.37927610  0.09303384  0.21532083    -0.16100
H980        H  0.37529215  0.09707162  0.29111409     0.09100
H981        H  0.38271344  0.16472282  0.41334999     0.07000
H982        H  0.40213885  0.14404056  0.40706630     0.08200
H983        H  0.38671902  0.14518574  0.44957098     0.07200
H984        H  0.33343994  0.08454965  0.31748152     0.02100
H985        H  0.31423649  0.10572640  0.32067221     0.02600
H986        H  0.31528914  0.08581169  0.35683247     0.06100
H987        H  0.32036670  0.16559479  0.28081758     0.05100
H988        H  0.33977755  0.16464522  0.31793674    -0.00700
H989        H  0.31752407  0.14665621  0.31838860     0.00800
H990        H  0.38816501  0.08259473  0.23490316     0.04400
H991        H  0.39090403  0.10115611  0.19671341     0.06400
H992        H  0.36873154  0.08293129  0.19809973     0.07300
C993        C  0.25624679  0.13008431  0.99394357    -0.22400
C994        C  0.25094836  0.11518856  0.96588209     0.09600
C995        C  0.26533740  0.09875735  0.95757022     0.10000
C996        C  0.28475640  0.09781921  0.97670761    -0.17300
C997        C  0.29062649  0.11304239  0.00402356    -0.27700
C998        C  0.27589883  0.12932963  0.01300413     0.18300
C999        C  0.22999435  0.11631909  0.94634148     0.12300
C1000       C  0.26020958  0.08207470  0.92840915    -0.12100
H1001       H  0.29577012  0.08536362  0.96906756     0.12600
C1002       C  0.28050999  0.14581066  0.04278962    -0.22900
H1003       H  0.24500575  0.14250743  0.00064852     0.08200
C1004       C  0.21132378  0.10928853  0.96435679     0.04600
C1005       C  0.19236865  0.10827804  0.94370087    -0.20100
C1006       C  0.19134685  0.11416837  0.90524623    -0.12400
C1007       C  0.21001079  0.12162270  0.88731987     0.13300
C1008       C  0.22902753  0.12269792  0.90818373    -0.22800
C1009       C  0.21144465  0.10245259  0.00525152    -0.05900
H1010       H  0.17808342  0.10295027  0.95790144     0.14800
C1011       C  0.21080373  0.12760226  0.84604680    -0.16100
H1012       H  0.24340291  0.12795974  0.89421550     0.09100
H1013       H  0.26662047  0.15620800  0.04804674     0.07000
H1014       H  0.29376166  0.15607723  0.03346941     0.08200
H1015       H  0.28460751  0.13801455  0.06995778     0.07200
H1016       H  0.25822880  0.08947034  0.90016017     0.02100
H1017       H  0.24534778  0.07383713  0.93646142     0.02600
H1018       H  0.27296951  0.07005318  0.92596056     0.06100
H1019       H  0.19556529  0.09706211  0.01480268     0.05100
H1020       H  0.21622859  0.11588417  0.02361716    -0.00700
H1021       H  0.22276317  0.08919519  0.00900405     0.00800
H1022       H  0.21509697  0.14454570  0.84340303     0.04400
H1023       H  0.19563264  0.12492694  0.83119140     0.06400
H1024       H  0.22302599  0.11792337  0.83135098     0.07300
C1025       C  0.37753052  0.01825333  0.64260387    -0.22400
C1026       C  0.36309803  0.00294342  0.63067966     0.09600
C1027       C  0.34588919  0.00890426  0.60772155     0.10000
C1028       C  0.34370014  0.03013252  0.59672613    -0.17300
C1029       C  0.35844265  0.04567926  0.60781456    -0.27700
C1030       C  0.37561892  0.03942810  0.63130813     0.18300
C1031       C  0.36676040  0.98060210  0.64149582     0.12300
C1032       C  0.33011469  0.99274368  0.59414325    -0.12100
H1033       H  0.33048931  0.03448197  0.57886365     0.12600
C1034       C  0.39261936  0.05452535  0.64355128    -0.22900
H1035       H  0.39070170  0.01342888  0.66021168     0.08200
C1036       C  0.38153976  0.96781378  0.62184464     0.04600
C1037       C  0.38333372  0.94630495  0.63118745    -0.20100
C1038       C  0.37072221  0.93742352  0.65981881    -0.12400
C1039       C  0.35702996  0.95062979  0.68123492     0.13300
C1040       C  0.35507797  0.97201988  0.67154804    -0.22800
C1041       C  0.39483519  0.97671896  0.59016063    -0.05900
H1042       H  0.39376828  0.93616187  0.61476365     0.14800
C1043       C  0.34435833  0.94266800  0.71457866    -0.16100
H1044       H  0.34417765  0.98202952  0.68725706     0.09100
H1045       H  0.40503024  0.04669869  0.66077716     0.07000
H1046       H  0.38559768  0.06724805  0.66124656     0.08200
H1047       H  0.40044706  0.06113695  0.61800537     0.07200
H1048       H  0.32210422  0.98533523  0.61881396     0.02100
H1049       H  0.33838556  0.98032773  0.57738921     0.02600
H1050       H  0.31777850  0.99993913  0.57590163     0.06100
H1051       H  0.40528332  0.96450726  0.57727600     0.05100
H1052       H  0.40501926  0.98961175  0.60121855    -0.00700
H1053       H  0.38442206  0.98308683  0.56761801     0.00800
H1054       H  0.34817495  0.95226734  0.74006477     0.04400
H1055       H  0.34785349  0.92596602  0.72158397     0.06400
H1056       H  0.32718877  0.94418567  0.70852839     0.07300
C1057       C  0.36311685  0.00617954  0.09496260    -0.22400
C1058       C  0.36811263  0.00345574  0.13326743     0.09600
C1059       C  0.37116710  0.02132023  0.15650989     0.10000
C1060       C  0.36892385  0.04161148  0.14084389    -0.17300
C1061       C  0.36319750  0.04453034  0.10267035    -0.27700
C1062       C  0.36056734  0.02639701  0.07929342     0.18300
C1063       C  0.36952865  0.98156985  0.14800333     0.12300
C1064       C  0.37650348  0.01893739  0.19785006    -0.12100
H1065       H  0.37129058  0.05525146  0.15873189     0.12600
C1066       C  0.35564922  0.02802080  0.03759271    -0.22900
H1067       H  0.36097509  0.99229167  0.07730063     0.08200
C1068       C  0.35117928  0.97037557  0.15848400     0.04600
C1069       C  0.35260490  0.94867775  0.16586829    -0.20100
C1070       C  0.37195654  0.93765084  0.16274574    -0.12400
C1071       C  0.39070134  0.94940887  0.15533907     0.13300
C1072       C  0.38913743  0.97119616  0.14771599    -0.22800
C1073       C  0.32995802  0.98122829  0.16081109    -0.05900
H1074       H  0.33824424  0.94015601  0.17289292     0.14800
C1075       C  0.41231809  0.93931067  0.15426722    -0.16100
H1076       H  0.40318813  0.98008398  0.14012930     0.09100
H1077       H  0.33966464  0.03490565  0.03353235     0.07000
H1078       H  0.35571895  0.01229241  0.02350546     0.08200
H1079       H  0.36773392  0.03796954  0.02328418     0.07200
H1080       H  0.39160510  0.01011681  0.20078330     0.02100
H1081       H  0.36370036  0.01013028  0.21255283     0.02600
H1082       H  0.37831063  0.03451438  0.21208788     0.06100
H1083       H  0.31721226  0.97019133  0.16968838     0.05100
H1084       H  0.32568841  0.98775703  0.13268597    -0.00700
H1085       H  0.33063681  0.99429849  0.18183448     0.00800
H1086       H  0.42496141  0.95101440  0.14810677     0.04400
H1087       H  0.41300873  0.92708072  0.13179778     0.06400
H1088       H  0.41587997  0.93210759  0.18218577     0.07300
C1089       C  0.39466310  0.85497399  0.91480903    -0.22400
C1090       C  0.38256210  0.87068686  0.93254672     0.09600
C1091       C  0.37137020  0.88541318  0.91021134     0.10000
C1092       C  0.37280921  0.88418495  0.87042592    -0.17300
C1093       C  0.38497853  0.86840155  0.85261273    -0.27700
C1094       C  0.39550912  0.85318316  0.87526344     0.18300
C1095       C  0.38118227  0.87065474  0.97455127     0.12300
C1096       C  0.35766422  0.90214241  0.92833537    -0.12100
H1097       H  0.36455493  0.89567125  0.85317585     0.12600
C1098       C  0.40683970  0.83411955  0.85917596    -0.22900
H1099       H  0.40294504  0.84350099  0.93208654     0.08200
C1100       C  0.36944040  0.85510165  0.99407892     0.04600
C1101       C  0.36880307  0.85547345  0.03385483    -0.20100
C1102       C  0.37947059  0.87111667  0.05460510    -0.12400
C1103       C  0.39084187  0.88699287  0.03491096     0.13300
C1104       C  0.39190351  0.88626887  0.99515914    -0.22800
C1105       C  0.35706835  0.83848954  0.97294758    -0.05900
H1106       H  0.35963622  0.84366775  0.04890610     0.14800
C1107       C  0.40093767  0.90561270  0.05443575    -0.16100
H1108       H  0.40075822  0.89828713  0.98004156     0.09100
H1109       H  0.40033681  0.81956934  0.87236089     0.07000
H1110       H  0.42398976  0.83516075  0.86569967     0.08200
H1111       H  0.40487334  0.83215461  0.82824802     0.07200
H1112       H  0.36747227  0.91268494  0.94629887     0.02100
H1113       H  0.34531401  0.89455410  0.94617289     0.02600
H1114       H  0.34962576  0.91204383  0.90678499     0.06100
H1115       H  0.34815460  0.82803703  0.99256900     0.05100
H1116       H  0.36794318  0.82842216  0.95594973    -0.00700
H1117       H  0.34551921  0.84621149  0.95378311     0.00800
H1118       H  0.41819009  0.90573562  0.04838388     0.04400
H1119       H  0.39857099  0.90553191  0.08546838     0.06400
H1120       H  0.39389687  0.92047192  0.04350972     0.07300
C1121       C  0.36744355  0.88609330  0.41106270    -0.22400
C1122       C  0.37824500  0.87103932  0.43276007     0.09600
C1123       C  0.39129791  0.85598769  0.41467696     0.10000
C1124       C  0.39346079  0.85646477  0.37516854    -0.17300
C1125       C  0.38277857  0.87155809  0.35320928    -0.27700
C1126       C  0.36963774  0.88666263  0.37139819     0.18300
C1127       C  0.37603916  0.87135827  0.47451908     0.12300
C1128       C  0.40293188  0.83943660  0.43712540    -0.12100
H1129       H  0.40339910  0.84479105  0.36120804     0.12600
C1130       C  0.35844694  0.90406923  0.35036923    -0.22900
H1131       H  0.35754123  0.89770259  0.42525585     0.08200
C1132       C  0.38991935  0.88322958  0.49739191     0.04600
C1133       C  0.38821538  0.88187245  0.53696831    -0.20100
C1134       C  0.37273976  0.86914265  0.55422936    -0.12400
C1135       C  0.35881877  0.85717376  0.53105111     0.13300
C1136       C  0.36060294  0.85860864  0.49147356    -0.22800
C1137       C  0.40634893  0.89749766  0.47997541    -0.05900
H1138       H  0.39863173  0.89131514  0.55455037     0.14800
C1139       C  0.34240061  0.84218305  0.54662929    -0.16100
H1140       H  0.35016507  0.84933540  0.47362853     0.09100
H1141       H  0.36333439  0.91960299  0.36216152     0.07000
H1142       H  0.34106857  0.90230464  0.35401000     0.08200
H1143       H  0.36210903  0.90429769  0.31966131     0.07200
H1144       H  0.39140715  0.82954613  0.45295050     0.02100
H1145       H  0.41381639  0.84715610  0.45754913     0.02600
H1146       H  0.41246475  0.82886692  0.41851742     0.06100
H1147       H  0.41584061  0.90576938  0.50192028     0.05100
H1148       H  0.39846034  0.90963322  0.46227019    -0.00700
H1149       H  0.41733219  0.88810413  0.46195589     0.00800
H1150       H  0.32632330  0.84809010  0.53964343     0.04400
H1151       H  0.34349867  0.83987425  0.57763847     0.06400
H1152       H  0.34455301  0.82636030  0.53344331     0.07300
C1153       C  0.39526117  0.74367579  0.85721770    -0.22400
C1154       C  0.38326452  0.74451929  0.82377603     0.09600
C1155       C  0.37154860  0.72655997  0.81271729     0.10000
C1156       C  0.37232342  0.70815031  0.83502411    -0.17300
C1157       C  0.38482293  0.70703707  0.86794543    -0.27700
C1158       C  0.39620860  0.72520729  0.87939180     0.18300
C1159       C  0.38281926  0.76458622  0.80152647     0.12300
C1160       C  0.35846595  0.72673978  0.77711406    -0.12100
H1161       H  0.36388966  0.69416260  0.82567166     0.12600
C1162       C  0.40915959  0.72578156  0.91512065    -0.22900
H1163       H  0.40401204  0.75756560  0.86606617     0.08200
C1164       C  0.36988730  0.78169856  0.81280164     0.04600
C1165       C  0.37107523  0.80092149  0.79303605    -0.20100
C1166       C  0.38517167  0.80372156  0.76247923    -0.12400
C1167       C  0.39747681  0.78630062  0.75008848     0.13300
C1168       C  0.39606180  0.76689489  0.76964430    -0.22800
C1169       C  0.35507229  0.77977778  0.84619042    -0.05900
H1170       H  0.36171117  0.81424357  0.80285046     0.14800
C1171       C  0.41182375  0.78804144  0.71603623    -0.16100
H1172       H  0.40571758  0.75361562  0.76064893     0.09100
H1173       H  0.40338041  0.73878700  0.93368971     0.07000
H1174       H  0.42602593  0.72870672  0.90788497     0.08200
H1175       H  0.40809338  0.71092472  0.93157808     0.07200
H1176       H  0.36882828  0.72968629  0.75218423     0.02100
H1177       H  0.34632175  0.73939781  0.77901996     0.02600
H1178       H  0.35022723  0.71144048  0.77257232     0.06100
H1179       H  0.34594345  0.79455423  0.85107406     0.05100
H1180       H  0.36422129  0.77636386  0.87226953    -0.00700
H1181       H  0.34364951  0.76675944  0.84105922     0.00800
H1182       H  0.40250599  0.79318435  0.69106617     0.04400
H1183       H  0.42461136  0.79963958  0.72154649     0.06400
H1184       H  0.41939004  0.77266204  0.70901059     0.07300
C1185       C  0.36809213  0.65756205  0.64571000    -0.22400
C1186       C  0.38263626  0.64440068  0.66388965     0.09600
C1187       C  0.39745603  0.63276069  0.64218281     0.10000
C1188       C  0.39676397  0.63389985  0.60243957    -0.17300
C1189       C  0.38173080  0.64660261  0.58416378    -0.27700
C1190       C  0.36782907  0.65930643  0.60620772     0.18300
C1191       C  0.38266953  0.64397915  0.70579612     0.12300
C1192       C  0.41392358  0.61915617  0.66093562    -0.12100
H1193       H  0.40741498  0.62420060  0.58560130     0.12600
C1194       C  0.35287495  0.67526644  0.58922786    -0.22900
H1195       H  0.35709100  0.66686188  0.66257971     0.08200
C1196       C  0.39045486  0.66127315  0.72680957     0.04600
C1197       C  0.39062398  0.66014162  0.76636057    -0.20100
C1198       C  0.38322285  0.64217755  0.78547167    -0.12400
C1199       C  0.37510096  0.62493413  0.76455932     0.13300
C1200       C  0.37480403  0.62613605  0.72478845    -0.22800
C1201       C  0.39908584  0.68072014  0.70759399    -0.05900
H1202       H  0.39680408  0.67333644  0.78261311     0.14800
C1203       C  0.36749120  0.60485205  0.78294165    -0.16100
H1204       H  0.36873105  0.61294327  0.70843652     0.09100
H1205       H  0.35554806  0.69093037  0.60267844     0.07000
H1206       H  0.33625746  0.67036833  0.59461363     0.08200
H1207       H  0.35524403  0.67745613  0.55834869     0.07200
H1208       H  0.40612410  0.60654914  0.67773424     0.02100
H1209       H  0.42381548  0.62901280  0.68000703     0.02600
H1210       H  0.42452260  0.61146455  0.63979605     0.06100
H1211       H  0.40517473  0.69241235  0.72842372     0.05100
H1212       H  0.38644414  0.68855651  0.69101515    -0.00700
H1213       H  0.41230698  0.67624087  0.68833089     0.00800
H1214       H  0.35058620  0.60223665  0.77581015     0.04400
H1215       H  0.36898243  0.60507412  0.81421839     0.06400
H1216       H  0.37694406  0.59130693  0.77206910     0.07300
C1217       C  0.38531047  0.66300754  0.22450876    -0.22400
C1218       C  0.37785790  0.64469146  0.20684529     0.09600
C1219       C  0.37225309  0.62696985  0.22893148     0.10000
C1220       C  0.37420050  0.62806513  0.26857802    -0.17300
C1221       C  0.38230526  0.64620998  0.28623606    -0.27700
C1222       C  0.38778374  0.66400477  0.26386262     0.18300
C1223       C  0.37681641  0.64440106  0.16499710     0.12300
C1224       C  0.36495315  0.60673794  0.21058992    -0.12100
H1225       H  0.37018047  0.61444865  0.28573010     0.12600
C1226       C  0.39614554  0.68439731  0.28016029    -0.22900
H1227       H  0.38952399  0.67656732  0.20731469     0.08200
C1228       C  0.35812533  0.64974555  0.14575980     0.04600
C1229       C  0.35806141  0.64955836  0.10605288    -0.20100
C1230       C  0.37633749  0.64439696  0.08471701    -0.12400
C1231       C  0.39540337  0.63995415  0.10447752     0.13300
C1232       C  0.39527118  0.63991320  0.14435528    -0.22800
C1233       C  0.33831595  0.65591392  0.16711042    -0.05900
H1234       H  0.34345880  0.65346223  0.09165065     0.14800
C1235       C  0.41591034  0.63498953  0.08437637    -0.16100
H1236       H  0.40967448  0.63634038  0.15969339     0.09100
H1237       H  0.38537505  0.69758212  0.27251275     0.07000
H1238       H  0.41209789  0.68768217  0.26822169     0.08200
H1239       H  0.39747849  0.68416045  0.31131439     0.07200
H1240       H  0.37748436  0.60069656  0.19121721     0.02100
H1241       H  0.35031566  0.60955323  0.19409940     0.02600
H1242       H  0.36152806  0.59433341  0.23196278     0.06100
H1243       H  0.32510247  0.65977410  0.14762353     0.05100
H1244       H  0.34150453  0.67005031  0.18491019    -0.00700
H1245       H  0.33308561  0.64276886  0.18562672     0.00800
H1246       H  0.42076685  0.64858560  0.06655114     0.04400
H1247       H  0.41401993  0.62069710  0.06657927     0.06400
H1248       H  0.42897410  0.63184161  0.10459541     0.07300
C1249       C  0.37129404  0.73361975  0.33096743    -0.22400
C1250       C  0.38842538  0.74748092  0.33412638     0.09600
C1251       C  0.40445964  0.74329713  0.36082961     0.10000
C1252       C  0.40412031  0.72412145  0.38085165    -0.17300
C1253       C  0.38760476  0.70944412  0.37605014    -0.27700
C1254       C  0.37048439  0.71477249  0.35176998     0.18300
C1255       C  0.38830981  0.76699518  0.31099144     0.12300
C1256       C  0.42164372  0.75921190  0.36874469    -0.12100
H1257       H  0.41707181  0.72034974  0.39973888     0.12600
C1258       C  0.35179031  0.70032873  0.34571739    -0.22900
H1259       H  0.35864694  0.73743895  0.31144396     0.08200
C1260       C  0.40103138  0.76944450  0.27824952     0.04600
C1261       C  0.40095957  0.78893101  0.25899098    -0.20100
C1262       C  0.38761011  0.80555335  0.27059908    -0.12400
C1263       C  0.37379890  0.80230642  0.30207522     0.13300
C1264       C  0.37455718  0.78318834  0.32182887    -0.22800
C1265       C  0.41424321  0.75140326  0.26323078    -0.05900
H1266       H  0.41144131  0.79126728  0.23495687     0.14800
C1267       C  0.35859446  0.81863114  0.31746089    -0.16100
H1268       H  0.36446527  0.78097771  0.34647643     0.09100
H1269       H  0.35715380  0.68496379  0.33387851     0.07000
H1270       H  0.34020860  0.70709451  0.32547464     0.08200
H1271       H  0.34335896  0.69781955  0.37301225     0.07200
H1272       H  0.41440196  0.77422047  0.37881339     0.02100
H1273       H  0.43100145  0.76241137  0.34275831     0.02600
H1274       H  0.43269675  0.75356319  0.39093868     0.06100
H1275       H  0.42292027  0.75587257  0.23700431     0.05100
H1276       H  0.40381730  0.73779451  0.25644251    -0.00700
H1277       H  0.42602912  0.74635913  0.28455493     0.00800
H1278       H  0.34231079  0.81201647  0.31754572     0.04400
H1279       H  0.35807253  0.83332031  0.30108945     0.06400
H1280       H  0.36299231  0.82273376  0.34703930     0.07300
C1281       C  0.59902509  0.36802044  0.63242574    -0.22400
C1282       C  0.61763575  0.36886685  0.65384290     0.09600
C1283       C  0.63740521  0.36917619  0.63535651     0.10000
C1284       C  0.63812978  0.36898577  0.59572013    -0.17300
C1285       C  0.61954887  0.36873684  0.57360697    -0.27700
C1286       C  0.59960546  0.36810160  0.59255667     0.18300
C1287       C  0.61614570  0.36949072  0.69570311     0.12300
C1288       C  0.65779318  0.37025980  0.65741236    -0.12100
H1289       H  0.65351725  0.36935799  0.58206800     0.12600
C1290       C  0.57880711  0.36785394  0.57165140    -0.22900
H1291       H  0.58392751  0.36756077  0.64714374     0.08200
C1292       C  0.60942514  0.38781766  0.71525783     0.04600
C1293       C  0.60835699  0.38755842  0.75500325    -0.20100
C1294       C  0.61423462  0.36954481  0.77550586    -0.12400
C1295       C  0.62117477  0.35123582  0.75579005     0.13300
C1296       C  0.62195442  0.35147859  0.71612297    -0.22800
C1297       C  0.60363018  0.40767681  0.69425248    -0.05900
H1298       H  0.60282828  0.40143736  0.77020078     0.14800
C1299       C  0.62711675  0.33089542  0.77521396    -0.16100
H1300       H  0.62698887  0.33741114  0.70090412     0.09100
H1301       H  0.57722603  0.38237306  0.55429460     0.07000
H1302       H  0.56505915  0.36739671  0.59138140     0.08200
H1303       H  0.57785093  0.35360536  0.55329388     0.07200
H1304       H  0.65955355  0.35595219  0.67521891     0.02100
H1305       H  0.65774417  0.38451155  0.67586300     0.02600
H1306       H  0.67183667  0.37116844  0.63842905     0.06100
H1307       H  0.59927763  0.42070195  0.71398643     0.05100
H1308       H  0.58988837  0.40465812  0.67550702    -0.00700
H1309       H  0.61729794  0.41298102  0.67682141     0.00800
H1310       H  0.61662865  0.31795087  0.76525566     0.04400
H1311       H  0.62569298  0.33175034  0.80634463     0.06400
H1312       H  0.64376851  0.32677741  0.76814945     0.07300
C1313       C  0.63027626  0.35797776  0.13529912    -0.22400
C1314       C  0.61521790  0.37087163  0.15311077     0.09600
C1315       C  0.60119858  0.38303295  0.13103181     0.10000
C1316       C  0.60269268  0.38213328  0.09131554    -0.17300
C1317       C  0.61808992  0.36956007  0.07332328    -0.27700
C1318       C  0.63178227  0.35695425  0.09567618     0.18300
C1319       C  0.61401643  0.37091439  0.19498931     0.12300
C1320       C  0.58503716  0.39730866  0.14945694    -0.12100
H1321       H  0.59233201  0.39189079  0.07427191     0.12600
C1322       C  0.64776771  0.34179931  0.07895587    -0.22900
H1323       H  0.64075532  0.34841709  0.15248913     0.08200
C1324       C  0.60031656  0.35706456  0.21433004     0.04600
C1325       C  0.59905525  0.35813255  0.25391400    -0.20100
C1326       C  0.61141640  0.37248649  0.27477954    -0.12400
C1327       C  0.62555488  0.38607058  0.25535630     0.13300
C1328       C  0.62669948  0.38502068  0.21557939    -0.22800
C1329       C  0.58724820  0.34098202  0.19322288    -0.05900
H1330       H  0.58855233  0.34740513  0.26880162     0.14800
C1331       C  0.63902599  0.40233295  0.27514280    -0.16100
H1332       H  0.63729715  0.39553345  0.20043218     0.09100
H1333       H  0.64522599  0.32582028  0.09108018     0.07000
H1334       H  0.66400855  0.34714172  0.08616392     0.08200
H1335       H  0.64652893  0.34010923  0.04779191     0.07200
H1336       H  0.59317363  0.40918389  0.16747796     0.02100
H1337       H  0.57409167  0.38789726  0.16736852     0.02600
H1338       H  0.57545431  0.40587638  0.12809385     0.06100
H1339       H  0.57746612  0.33128835  0.21279036     0.05100
H1340       H  0.59785079  0.33017199  0.17711541    -0.00700
H1341       H  0.57645108  0.34903321  0.17316143     0.00800
H1342       H  0.65601751  0.39857831  0.27047860     0.04400
H1343       H  0.63602523  0.40332855  0.30602333     0.06400
H1344       H  0.63567039  0.41819195  0.26317980     0.07300
C1345       C  0.50533435  0.13391624  0.60481287    -0.22400
C1346       C  0.48916098  0.14071465  0.62919538     0.09600
C1347       C  0.49426897  0.14896992  0.66514530     0.10000
C1348       C  0.51550435  0.14988944  0.67628704    -0.17300
C1349       C  0.53192553  0.14251252  0.65257512    -0.27700
C1350       C  0.52669787  0.13466423  0.61592307     0.18300
C1351       C  0.46679438  0.13792520  0.61789533     0.12300
C1352       C  0.47723059  0.15655834  0.69200403    -0.12100
H1353       H  0.51918221  0.15595316  0.70426248     0.12600
C1354       C  0.54328526  0.12715419  0.58809839    -0.22900
H1355       H  0.50113780  0.12763811  0.57721463     0.08200
C1356       C  0.45564437  0.15364323  0.59815555     0.04600
C1357       C  0.43368224  0.15151630  0.59333986    -0.20100
C1358       C  0.42249470  0.13399513  0.60781708    -0.12400
C1359       C  0.43424337  0.11756412  0.62559586     0.13300
C1360       C  0.45616037  0.11987364  0.63028432    -0.22800
C1361       C  0.46686589  0.17288105  0.58314278    -0.05900
H1362       H  0.42508058  0.16397297  0.57903170     0.14800
C1363       C  0.42482174  0.09776042  0.64191553    -0.16100
H1364       H  0.46498660  0.10778544  0.64522446     0.09100
H1365       H  0.55494244  0.13992336  0.58282354     0.07000
H1366       H  0.53626064  0.12271325  0.56037059     0.08200
H1367       H  0.55143796  0.11295018  0.59926288     0.07200
H1368       H  0.46638350  0.14333243  0.69905142     0.02100
H1369       H  0.46804299  0.16947218  0.67858890     0.02600
H1370       H  0.48395398  0.16270100  0.71892116     0.06100
H1371       H  0.45582460  0.18371090  0.56832595     0.05100
H1372       H  0.47936023  0.16796119  0.56269933    -0.00700
H1373       H  0.47427958  0.18170584  0.60687877     0.00800
H1374       H  0.43230796  0.08379625  0.62819671     0.04400
H1375       H  0.40770444  0.09639918  0.63801615     0.06400
H1376       H  0.42802562  0.09712968  0.67282816     0.07300
C1377       C  0.59693587  0.22599894  0.82396840    -0.22400
C1378       C  0.60477827  0.24333955  0.80392885     0.09600
C1379       C  0.61143851  0.24050411  0.76587752     0.10000
C1380       C  0.61000808  0.22029255  0.74877508    -0.17300
C1381       C  0.60136655  0.20303701  0.76853678    -0.27700
C1382       C  0.59485827  0.20607652  0.80682984     0.18300
C1383       C  0.60461981  0.26440446  0.82320303     0.12300
C1384       C  0.61949818  0.25893114  0.74315344    -0.12100
H1385       H  0.61510784  0.21809447  0.71965357     0.12600
C1386       C  0.58617314  0.18826893  0.83048797    -0.22900
H1387       H  0.59197208  0.22823238  0.85318121     0.08200
C1388       C  0.58553022  0.27552949  0.82903196     0.04600
C1389       C  0.58576314  0.29497003  0.84836124    -0.20100
C1390       C  0.60469611  0.30413046  0.86181980    -0.12400
C1391       C  0.62388569  0.29257207  0.85655135     0.13300
C1392       C  0.62348597  0.27287068  0.83756505    -0.22800
C1393       C  0.56487232  0.26716071  0.81385390    -0.05900
H1394       H  0.57091877  0.30334403  0.85192340     0.14800
C1395       C  0.64499366  0.30084514  0.86977187    -0.16100
H1396       H  0.63804541  0.26405529  0.83350582     0.09100
H1397       H  0.57096721  0.18256250  0.81866149     0.07000
H1398       H  0.58314735  0.19318329  0.86029304     0.08200
H1399       H  0.59779931  0.17525169  0.83100167     0.07200
H1400       H  0.63384516  0.26559805  0.75675477     0.02100
H1401       H  0.60710069  0.27135787  0.74173233     0.02600
H1402       H  0.62370295  0.25418866  0.71372303     0.06100
H1403       H  0.55151409  0.27813544  0.81971042     0.05100
H1404       H  0.56105609  0.25178669  0.82726862    -0.00700
H1405       H  0.56610673  0.26498115  0.78266598     0.00800
H1406       H  0.65802393  0.28950041  0.86379561     0.04400
H1407       H  0.64457137  0.30359657  0.90086944     0.06400
H1408       H  0.64890515  0.31573834  0.85481087     0.07300
C1409       C  0.50185244  0.11991027  0.13300951    -0.22400
C1410       C  0.49007482  0.13847277  0.12818782     0.09600
C1411       C  0.50002019  0.15822089  0.13337144     0.10000
C1412       C  0.52123825  0.15893666  0.14503846    -0.17300
C1413       C  0.53287494  0.14037453  0.15174952    -0.27700
C1414       C  0.52303411  0.12049841  0.14515141     0.18300
C1415       C  0.46678740  0.13688271  0.12292903     0.12300
C1416       C  0.48818590  0.17855637  0.12675734    -0.12100
H1417       H  0.52872082  0.17415332  0.14949107     0.12600
C1418       C  0.53351887  0.09951238  0.15289518    -0.22900
H1419       H  0.49406750  0.10477122  0.12936987     0.08200
C1420       C  0.45747205  0.13123210  0.08800039     0.04600
C1421       C  0.43523675  0.13015261  0.08526931    -0.20100
C1422       C  0.42222241  0.13479206  0.11663031    -0.12400
C1423       C  0.43167845  0.13996117  0.15180324     0.13300
C1424       C  0.45378114  0.14094498  0.15438714    -0.22800
C1425       C  0.47095394  0.12687637  0.05356150    -0.05900
H1426       H  0.42796703  0.12621833  0.05836731     0.14800
C1427       C  0.41906885  0.14407560  0.18751537    -0.16100
H1428       H  0.46099584  0.14491372  0.18134641     0.09100
H1429       H  0.53542148  0.09064393  0.12587381     0.07000
H1430       H  0.52335364  0.09012517  0.17231665     0.08200
H1431       H  0.54912927  0.10075708  0.16667926     0.07200
H1432       H  0.47459077  0.17983271  0.14665425     0.02100
H1433       H  0.48225214  0.17891911  0.09717076     0.02600
H1434       H  0.49845961  0.19258534  0.13113853     0.06100
H1435       H  0.46116001  0.12309735  0.02834665     0.05100
H1436       H  0.48154763  0.11322978  0.05901714    -0.00700
H1437       H  0.48070613  0.14099225  0.04691722     0.00800
H1438       H  0.42417936  0.13291505  0.20993502     0.04400
H1439       H  0.40180473  0.14194804  0.18385568     0.06400
H1440       H  0.42198718  0.16048141  0.19744992     0.07300
C1441       C  0.59371823  0.11960598  0.90323114    -0.22400
C1442       C  0.60798854  0.13306412  0.92158437     0.09600
C1443       C  0.62232801  0.14518506  0.90003321     0.10000
C1444       C  0.62169303  0.14402063  0.86035849    -0.17300
C1445       C  0.60670575  0.13135867  0.84162929    -0.27700
C1446       C  0.59305243  0.11834378  0.86350658     0.18300
C1447       C  0.60867842  0.13328325  0.96348489     0.12300
C1448       C  0.63796767  0.15971866  0.91896700    -0.12100
H1449       H  0.63217352  0.15402074  0.84390016     0.12600
C1450       C  0.57809568  0.10247002  0.84623412    -0.22900
H1451       H  0.58320108  0.10982675  0.92006421     0.08200
C1452       C  0.59639405  0.14746681  0.98532008     0.04600
C1453       C  0.59895984  0.14797762  0.02490304    -0.20100
C1454       C  0.61340904  0.13446894  0.04294875    -0.12400
C1455       C  0.62455532  0.11921550  0.02096972     0.13300
C1456       C  0.62239019  0.11922151  0.98148842    -0.22800
C1457       C  0.58083034  0.16216001  0.96674668    -0.05900
H1458       H  0.59005360  0.15930594  0.04169451     0.14800
C1459       C  0.63823523  0.10211951  0.03787650    -0.16100
H1460       H  0.63135700  0.10799717  0.96452734     0.09100
H1461       H  0.56148441  0.10736236  0.85183423     0.07000
H1462       H  0.58079478  0.08674989  0.85928174     0.08200
H1463       H  0.58045561  0.10035396  0.81533078     0.07200
H1464       H  0.64861330  0.15045051  0.93757376     0.02100
H1465       H  0.62939375  0.17165261  0.93633279     0.02600
H1466       H  0.64790149  0.16824500  0.89794492     0.06100
H1467       H  0.57249041  0.17223477  0.98790249     0.05100
H1468       H  0.56877972  0.15280451  0.95118507    -0.00700
H1469       H  0.58920771  0.17265204  0.94647993     0.00800
H1470       H  0.63313286  0.08649312  0.02677448     0.04400
H1471       H  0.63705595  0.10110932  0.06911177     0.06400
H1472       H  0.65501697  0.10474577  0.02967105     0.07300
C1473       C  0.62669069  0.15597678  0.40106318    -0.22400
C1474       C  0.60948733  0.14842030  0.42230023     0.09600
C1475       C  0.59126400  0.14121172  0.40337041     0.10000
C1476       C  0.59085159  0.14123849  0.36358405    -0.17300
C1477       C  0.60817888  0.14845889  0.34183334    -0.27700
C1478       C  0.62631472  0.15616653  0.36113888     0.18300
C1479       C  0.61138154  0.14698068  0.46422473     0.12300
C1480       C  0.57233616  0.13320627  0.42515470    -0.12100
H1481       H  0.57681001  0.13544353  0.34939410     0.12600
C1482       C  0.64510284  0.16517668  0.34030649    -0.22900
H1483       H  0.64057784  0.16162125  0.41594429     0.08200
C1484       C  0.62345843  0.13080624  0.48109149     0.04600
C1485       C  0.62484609  0.12978687  0.52072485    -0.20100
C1486       C  0.61419267  0.14435762  0.54414150    -0.12400
C1487       C  0.60195066  0.16052194  0.52724567     0.13300
C1488       C  0.60075801  0.16165994  0.48741731    -0.22800
C1489       C  0.63458174  0.11436280  0.45725057    -0.05900
H1490       H  0.63413482  0.11732480  0.53358849     0.14800
C1491       C  0.59083461  0.17704632  0.55088710    -0.16100
H1492       H  0.59155045  0.17407028  0.47423702     0.09100
H1493       H  0.65272871  0.15276113  0.32264679     0.07000
H1494       H  0.65727343  0.17135419  0.36009905     0.08200
H1495       H  0.63991243  0.17846575  0.32218391     0.07200
H1496       H  0.56585772  0.14600716  0.44340750     0.02100
H1497       H  0.57706716  0.11966578  0.44318969     0.02600
H1498       H  0.55950593  0.12782359  0.40597162     0.06100
H1499       H  0.64289355  0.10252080  0.47498822     0.05100
H1500       H  0.64652503  0.12201137  0.43866840    -0.00700
H1501       H  0.62285914  0.10588296  0.43943137     0.00800
H1502       H  0.58286725  0.18903676  0.53296118     0.04400
H1503       H  0.60248879  0.18534020  0.56912093     0.06400
H1504       H  0.57855152  0.16958717  0.56894795     0.07300
C1505       C  0.59263885  0.24746973  0.25867783    -0.22400
C1506       C  0.60885666  0.25063185  0.28521897     0.09600
C1507       C  0.62437365  0.23486942  0.29005315     0.10000
C1508       C  0.62283237  0.21593186  0.26943849    -0.17300
C1509       C  0.60565213  0.21190747  0.24517812    -0.27700
C1510       C  0.59075202  0.22822251  0.23871503     0.18300
C1511       C  0.60895812  0.27020447  0.30866234     0.12300
C1512       C  0.64210427  0.23770262  0.31808124    -0.12100
H1513       H  0.63444107  0.20363900  0.27420791     0.12600
C1514       C  0.57308860  0.22555768  0.21053380    -0.22900
H1515       H  0.58105683  0.25988087  0.25445675     0.08200
C1516       C  0.61974642  0.28852930  0.29675750     0.04600
C1517       C  0.61950198  0.30656637  0.32003781    -0.20100
C1518       C  0.60826693  0.30694910  0.35452564    -0.12400
C1519       C  0.59754465  0.28855681  0.36658778     0.13300
C1520       C  0.59819014  0.27032543  0.34362219    -0.22800
C1521       C  0.63099375  0.28923818  0.25903263    -0.05900
H1522       H  0.62726859  0.32085939  0.31033728     0.14800
C1523       C  0.58548675  0.28763271  0.40345716    -0.16100
H1524       H  0.59004696  0.25615479  0.35284821     0.09100
H1525       H  0.56388585  0.24039032  0.20711328     0.07000
H1526       H  0.56192448  0.21313142  0.22005452     0.08200
H1527       H  0.57978471  0.22117519  0.18242177     0.07200
H1528       H  0.63545272  0.23994219  0.34700750     0.02100
H1529       H  0.65169407  0.25175206  0.31042098     0.02600
H1530       H  0.65278238  0.22375052  0.31865209     0.06100
H1531       H  0.63843087  0.30488047  0.25390297     0.05100
H1532       H  0.61951486  0.28619954  0.23588830    -0.00700
H1533       H  0.64361148  0.27703699  0.25801982     0.00800
H1534       H  0.56856312  0.28418427  0.39772835     0.04400
H1535       H  0.58642717  0.30259447  0.41981531     0.06400
H1536       H  0.59209333  0.27484434  0.42137879     0.07300
C1537       C  0.85781927  0.87567677  0.53558924    -0.22400
C1538       C  0.86832181  0.89212323  0.55434015     0.09600
C1539       C  0.87869843  0.90786170  0.53320058     0.10000
C1540       C  0.87809140  0.90696431  0.49350202    -0.17300
C1541       C  0.86722515  0.89073017  0.47424462    -0.27700
C1542       C  0.85700330  0.87477458  0.49580357     0.18300
C1543       C  0.86870103  0.89217002  0.59625186     0.12300
C1544       C  0.89010641  0.92576613  0.55259734    -0.12100
H1545       H  0.88590715  0.91928256  0.47740493     0.12600
C1546       C  0.84448585  0.85723688  0.47751675    -0.22900
H1547       H  0.84999552  0.86361759  0.55231579     0.08200
C1548       C  0.85193701  0.90073144  0.61799468     0.04600
C1549       C  0.85255721  0.89916979  0.65771611    -0.20100
C1550       C  0.86949816  0.88908525  0.67586563    -0.12400
C1551       C  0.88682732  0.88155369  0.65397193     0.13300
C1552       C  0.88604843  0.88299256  0.61440829    -0.22800
C1553       C  0.83329812  0.91114162  0.59919141    -0.05900
H1554       H  0.83939566  0.90504507  0.67453675     0.14800
C1555       C  0.90656188  0.87224727  0.67123170    -0.16100
H1556       H  0.89906158  0.87682785  0.59751411     0.09100
H1557       H  0.83694177  0.84680179  0.49892668     0.07000
H1558       H  0.85509527  0.84723384  0.45983141     0.08200
H1559       H  0.83169667  0.86401102  0.45975627     0.07200
H1560       H  0.90302699  0.91940549  0.57050706     0.02100
H1561       H  0.87884215  0.93475379  0.57074989     0.02600
H1562       H  0.89720309  0.93690010  0.53185089     0.06100
H1563       H  0.82159571  0.91703762  0.62031665     0.05100
H1564       H  0.82519849  0.89963132  0.58038175    -0.00700
H1565       H  0.83880331  0.92476709  0.58203568     0.00800
H1566       H  0.90814164  0.85544267  0.66251203     0.04400
H1567       H  0.90674078  0.87314163  0.70256717     0.06400
H1568       H  0.92063980  0.88108848  0.66097644     0.07300
C1569       C  0.87669313  0.86857499  0.11460342    -0.22400
C1570       C  0.86186481  0.88115143  0.09587946     0.09600
C1571       C  0.84723936  0.89327215  0.11724211     0.10000
C1572       C  0.84736575  0.89194747  0.15710015    -0.17300
C1573       C  0.86188084  0.87884099  0.17580243    -0.27700
C1574       C  0.87716579  0.86752909  0.15423424     0.18300
C1575       C  0.86267372  0.88189756  0.05386545     0.12300
C1576       C  0.83181069  0.90781850  0.09797208    -0.12100
H1577       H  0.83599462  0.90095005  0.17364978     0.12600
C1578       C  0.89469000  0.85507542  0.17276759    -0.22900
H1579       H  0.88815329  0.85971012  0.09798736     0.08200
C1580       C  0.87882307  0.89305021  0.03482388     0.04600
C1581       C  0.87904578  0.89340684  0.99510767    -0.20100
C1582       C  0.86350659  0.88290980  0.97372224    -0.12400
C1583       C  0.84753292  0.87133174  0.99289096     0.13300
C1584       C  0.84741753  0.87089765  0.03279716    -0.22800
C1585       C  0.89548697  0.90511147  0.05639256    -0.05900
H1586       H  0.89120340  0.90240695  0.98058769     0.14800
C1587       C  0.83000516  0.86032257  0.97172770    -0.16100
H1588       H  0.83518447  0.86221650  0.04773075     0.09100
H1589       H  0.90616828  0.84881711  0.15158251     0.07000
H1590       H  0.88811161  0.84134937  0.18830628     0.08200
H1591       H  0.90354704  0.86541587  0.19265806     0.07200
H1592       H  0.82124354  0.89857883  0.07910666     0.02100
H1593       H  0.84060410  0.91963450  0.08083899     0.02600
H1594       H  0.82177713  0.91645844  0.11881170     0.06100
H1595       H  0.90650787  0.91355337  0.03705922     0.05100
H1596       H  0.90500169  0.89409830  0.07384436    -0.00700
H1597       H  0.88780634  0.91699854  0.07516234     0.00800
H1598       H  0.83671390  0.84776178  0.95320883     0.04400
H1599       H  0.82122559  0.87192519  0.95423551     0.06400
H1600       H  0.81849676  0.85275979  0.99133662     0.07300
C1601       C  0.60859874  0.99276472  0.63108067    -0.22400
C1602       C  0.62238128  0.00822718  0.61701753     0.09600
C1603       C  0.63851911  0.00228805  0.59136844     0.10000
C1604       C  0.64036323  0.98107074  0.57996907    -0.17300
C1605       C  0.62647911  0.96535822  0.59354003    -0.27700
C1606       C  0.61035039  0.97143774  0.61979533     0.18300
C1607       C  0.61962425  0.03066013  0.62900708     0.12300
C1608       C  0.65362905  0.01845832  0.57550277    -0.12100
H1609       H  0.65278358  0.97681556  0.56008097     0.12600
C1610       C  0.59458879  0.95588107  0.63573624    -0.22900
H1611       H  0.59628220  0.99749889  0.65085659     0.08200
C1612       C  0.60434001  0.04391227  0.61213694     0.04600
C1613       C  0.60377099  0.06554601  0.62163155    -0.20100
C1614       C  0.61828928  0.07427985  0.64737861    -0.12400
C1615       C  0.63272585  0.06062685  0.66602984     0.13300
C1616       C  0.63331184  0.03908771  0.65629456    -0.22800
C1617       C  0.58924139  0.03537212  0.58293922    -0.05900
H1618       H  0.59269155  0.07588216  0.60735711     0.14800
C1619       C  0.64758792  0.06808065  0.69666850    -0.16100
H1620       H  0.64476862  0.02880417  0.66975029     0.09100
H1621       H  0.58293848  0.96364790  0.65491942     0.07000
H1622       H  0.60292498  0.94364306  0.65252828     0.08200
H1623       H  0.58557552  0.94836038  0.61234133     0.07200
H1624       H  0.66277575  0.02583153  0.59886095     0.02100
H1625       H  0.64463492  0.03089348  0.56032320     0.02600
H1626       H  0.66508061  0.01128396  0.55522891     0.06100
H1627       H  0.57854085  0.04786880  0.57202227     0.05100
H1628       H  0.57931959  0.02276609  0.59569520    -0.00700
H1629       H  0.59828121  0.02871033  0.55861126     0.00800
H1630       H  0.64532890  0.05824268  0.72239018     0.04400
H1631       H  0.64480570  0.08468323  0.70538466     0.06400
H1632       H  0.66422107  0.06640161  0.68677588     0.07300
C1633       C  0.52966958  0.86078603  0.59804791    -0.22400
C1634       C  0.52120110  0.87886031  0.61538009     0.09600
C1635       C  0.53449382  0.89630595  0.62256855     0.10000
C1636       C  0.55617488  0.89491752  0.61372130    -0.17300
C1637       C  0.56509650  0.87631095  0.59842627    -0.27700
C1638       C  0.55138758  0.85918128  0.58953408     0.18300
C1639       C  0.49905465  0.87804168  0.62978611     0.12300
C1640       C  0.52585170  0.91626344  0.64016474    -0.12100
H1641       H  0.56634902  0.90818037  0.62046912     0.12600
C1642       C  0.55927882  0.83905135  0.57131306    -0.22900
H1643       H  0.51930813  0.84747147  0.59261772     0.08200
C1644       C  0.48133332  0.87996642  0.60578058     0.04600
C1645       C  0.46080835  0.87764273  0.62105114    -0.20100
C1646       C  0.45763817  0.87294588  0.65966352    -0.12400
C1647       C  0.47554963  0.87136837  0.68368342     0.13300
C1648       C  0.49592826  0.87398447  0.66839239    -0.22800
C1649       C  0.48412667  0.88447008  0.56417151    -0.05900
H1650       H  0.44720481  0.87904318  0.60258369     0.14800
C1651       C  0.47344153  0.86741526  0.72568778    -0.16100
H1652       H  0.50964400  0.87251884  0.68659794     0.09100
H1653       H  0.56809864  0.84277375  0.54486800     0.07000
H1654       H  0.54604805  0.82830656  0.56369944     0.08200
H1655       H  0.56962504  0.83031519  0.59120829     0.07200
H1656       H  0.51929475  0.91286465  0.66873920     0.02100
H1657       H  0.51311856  0.92276792  0.62198066     0.02600
H1658       H  0.53829954  0.92853430  0.64331206     0.06100
H1659       H  0.46866300  0.88577514  0.54946353     0.05100
H1660       H  0.49328454  0.87152477  0.55051554    -0.00700
H1661       H  0.49278226  0.89959486  0.56046625     0.00800
H1662       H  0.46687389  0.85141460  0.73076948     0.04400
H1663       H  0.46294851  0.87953512  0.73871883     0.06400
H1664       H  0.48898493  0.86820883  0.74025383     0.07300
C1665       C  0.72150479  0.90876061  0.43598510    -0.22400
C1666       C  0.73592632  0.89341523  0.44771252     0.09600
C1667       C  0.73060139  0.88027553  0.47861099     0.10000
C1668       C  0.71089041  0.88283533  0.49709508    -0.17300
C1669       C  0.69633453  0.89849458  0.48585080    -0.27700
C1670       C  0.70190652  0.91159059  0.45434331     0.18300
C1671       C  0.75734212  0.89320844  0.42973415     0.12300
C1672       C  0.74568074  0.86341405  0.49177883    -0.12100
H1673       H  0.70684977  0.87247744  0.52043304     0.12600
C1674       C  0.68749548  0.92856960  0.43894864    -0.22900
H1675       H  0.72586008  0.91890451  0.41249018     0.08200
C1676       C  0.76140942  0.88407421  0.39378828     0.04600
C1677       C  0.78184761  0.88570960  0.37756971    -0.20100
C1678       C  0.79823757  0.89656506  0.39626629    -0.12400
C1679       C  0.79405461  0.90521785  0.43289985     0.13300
C1680       C  0.77367774  0.90369821  0.44856364    -0.22800
C1681       C  0.74420187  0.87259302  0.37272637    -0.05900
H1682       H  0.78497849  0.87869769  0.35003369     0.14800
C1683       C  0.81061415  0.91541099  0.45768590    -0.16100
H1684       H  0.77051452  0.91065690  0.47617253     0.09100
H1685       H  0.69439838  0.93651587  0.41372659     0.07000
H1686       H  0.68482439  0.94094747  0.46081620     0.08200
H1687       H  0.67217138  0.92166614  0.43000326     0.07200
H1688       H  0.76073148  0.87072941  0.50126127     0.02100
H1689       H  0.74904313  0.85227857  0.46810792     0.02600
H1690       H  0.73902810  0.85424431  0.51583708     0.06100
H1691       H  0.75000943  0.86614131  0.34526081     0.05100
H1692       H  0.73091226  0.88357003  0.36680747    -0.00700
H1693       H  0.73828386  0.85924132  0.39014695     0.00800
H1694       H  0.80643700  0.93224746  0.46262077     0.04400
H1695       H  0.82677297  0.91467120  0.44600177     0.06400
H1696       H  0.81110545  0.90719426  0.48546477     0.07300
C1697       C  0.64107956  0.00521569  0.09630284    -0.22400
C1698       C  0.62670534  0.00870817  0.12597041     0.09600
C1699       C  0.61564890  0.99146648  0.14158207     0.10000
C1700       C  0.61912080  0.97106145  0.12683941    -0.17300
C1701       C  0.63317283  0.96738483  0.09623789    -0.27700
C1702       C  0.64448261  0.98492452  0.08108758     0.18300
C1703       C  0.62290189  0.03085836  0.13838117     0.12300
C1704       C  0.59983994  0.99466484  0.17317783    -0.12100
H1705       H  0.61035486  0.95797815  0.13890452     0.12600
C1706       C  0.66008036  0.98279043  0.04879874    -0.22900
H1707       H  0.64945223  0.01865014  0.08452181     0.08200
C1708       C  0.63523940  0.04049996  0.16684995     0.04600
C1709       C  0.63326481  0.06235133  0.17341011    -0.20100
C1710       C  0.61954955  0.07488713  0.15165498    -0.12400
C1711       C  0.60698281  0.06507480  0.12335127     0.13300
C1712       C  0.60858396  0.04314629  0.11767328    -0.22800
C1713       C  0.65117571  0.02792259  0.18905001    -0.05900
H1714       H  0.64315990  0.06988077  0.19455144     0.14800
C1715       C  0.59297196  0.07717666  0.09646374    -0.16100
H1716       H  0.59946701  0.03573621  0.09528436     0.09100
H1717       H  0.66761754  0.99812985  0.04161058     0.07000
H1718       H  0.65187016  0.97710712  0.02293914     0.08200
H1719       H  0.67292289  0.97167728  0.05670768     0.07200
H1720       H  0.58708217  0.00547288  0.16366049     0.02100
H1721       H  0.60775648  0.00165435  0.19826616     0.02600
H1722       H  0.59244137  0.97952804  0.18200463     0.06100
H1723       H  0.65967894  0.03792789  0.20995785     0.05100
H1724       H  0.66307584  0.02092104  0.16944400    -0.00700
H1725       H  0.64310420  0.01505617  0.20473224     0.00800
H1726       H  0.59815316  0.07407524  0.06682594     0.04400
H1727       H  0.59334123  0.09447206  0.10070837     0.06400
H1728       H  0.57634278  0.07179475  0.09979411     0.07300
C1729       C  0.48697531  0.88223460  0.11813268    -0.22400
C1730       C  0.50340266  0.87722094  0.14311106     0.09600
C1731       C  0.49847292  0.86991515  0.17983256     0.10000
C1732       C  0.47718153  0.86789928  0.19084077    -0.17300
C1733       C  0.46053757  0.87301629  0.16606367    -0.27700
C1734       C  0.46560757  0.88019273  0.12898727     0.18300
C1735       C  0.52569610  0.87873552  0.12977378     0.12300
C1736       C  0.51570548  0.86391558  0.20721155    -0.12100
H1737       H  0.47354509  0.86241496  0.21920994     0.12600
C1738       C  0.44877403  0.88514634  0.10019897    -0.22900
H1739       H  0.49095302  0.88759811  0.08982488     0.08200
C1740       C  0.53480999  0.86269977  0.10717150     0.04600
C1741       C  0.55638167  0.86378794  0.09772776    -0.20100
C1742       C  0.56924344  0.88048166  0.11048649    -0.12400
C1743       C  0.55988469  0.89690392  0.13238757     0.13300
C1744       C  0.53819191  0.89582751  0.14156329    -0.22800
C1745       C  0.52192221  0.84404208  0.09409661    -0.05900
H1746       H  0.56338488  0.85118799  0.08096797     0.14800
C1747       C  0.57277171  0.91493590  0.14806772    -0.16100
H1748       H  0.53103376  0.90804778  0.15901322     0.09100
H1749       H  0.45570820  0.88919664  0.07215560     0.07000
H1750       H  0.43930954  0.89893864  0.10978849     0.08200
H1751       H  0.43831381  0.87122628  0.09618251     0.07200
H1752       H  0.52581416  0.87784963  0.21329315     0.02100
H1753       H  0.52561515  0.85114272  0.19474428     0.02600
H1754       H  0.50913045  0.85814772  0.23453979     0.06100
H1755       H  0.53158458  0.83270293  0.07725673     0.05100
H1756       H  0.50867575  0.84952534  0.07602874    -0.00700
H1757       H  0.51540552  0.83554040  0.11904016     0.00800
H1758       H  0.57954164  0.92440974  0.12453752     0.04400
H1759       H  0.58569946  0.90861084  0.16597850     0.06400
H1760       H  0.56303645  0.92572758  0.16591489     0.07300
C1761       C  0.63659232  0.87233078  0.84820297    -0.22400
C1762       C  0.62495583  0.88748096  0.82826515     0.09600
C1763       C  0.61317993  0.90277359  0.84838253     0.10000
C1764       C  0.61390412  0.90304670  0.88814935    -0.17300
C1765       C  0.62617002  0.88837721  0.90850342    -0.27700
C1766       C  0.63743862  0.87254860  0.88804693     0.18300
C1767       C  0.62557292  0.88720986  0.78622899     0.12300
C1768       C  0.60031032  0.91914664  0.82778889    -0.12100
H1769       H  0.60521030  0.91517515  0.90341472     0.12600
C1770       C  0.65118470  0.85641655  0.90751911    -0.22900
H1771       H  0.64545304  0.86055483  0.83234584     0.08200
C1772       C  0.64240048  0.89650726  0.76573252     0.04600
C1773       C  0.64251643  0.89539204  0.72587730    -0.20100
C1774       C  0.62617187  0.88514705  0.70624730    -0.12400
C1775       C  0.60880893  0.87671831  0.72693789     0.13300
C1776       C  0.60893943  0.87758860  0.76664725    -0.22800
C1777       C  0.66024119  0.90746975  0.78602803    -0.05900
H1778       H  0.65570368  0.90195296  0.71007141     0.14800
C1779       C  0.58955985  0.86720986  0.70825231    -0.16100
H1780       H  0.59584472  0.87086078  0.78251247     0.09100
H1781       H  0.65938522  0.84592259  0.88685210     0.07000
H1782       H  0.64131518  0.84624965  0.92610046     0.08200
H1783       H  0.66352425  0.86445585  0.92462385     0.07200
H1784       H  0.58797875  0.91127286  0.81042726     0.02100
H1785       H  0.61078546  0.92855829  0.80895773     0.02600
H1786       H  0.59227740  0.93017227  0.84775860     0.06100
H1787       H  0.67204987  0.91403040  0.76583894     0.05100
H1788       H  0.66848949  0.89612162  0.80483798    -0.00700
H1789       H  0.65385298  0.92069654  0.80340136     0.00800
H1790       H  0.58841153  0.85020068  0.71560323     0.04400
H1791       H  0.58963593  0.86876599  0.67702446     0.06400
H1792       H  0.57510798  0.87542270  0.71867612     0.07300
C1793       C  0.63508731  0.90420233  0.26739137    -0.22400
C1794       C  0.63738740  0.88524711  0.28746604     0.09600
C1795       C  0.64068003  0.86621526  0.26770026     0.10000
C1796       C  0.64192925  0.86655676  0.22817383    -0.17300
C1797       C  0.63891104  0.88532056  0.20731195    -0.27700
C1798       C  0.63563310  0.90453863  0.22745535     0.18300
C1799       C  0.63612107  0.88546065  0.32928351     0.12300
C1800       C  0.64205176  0.84536717  0.28821552    -0.12100
H1801       H  0.64460498  0.85172318  0.21348712     0.12600
C1802       C  0.63213645  0.92530581  0.20758372    -0.22900
H1803       H  0.63250933  0.91872892  0.28312504     0.08200
C1804       C  0.65458596  0.88587944  0.35162209     0.04600
C1805       C  0.65263940  0.88531063  0.39117648    -0.20100
C1806       C  0.63268321  0.88515092  0.40875302    -0.12400
C1807       C  0.61420456  0.88441363  0.38643597     0.13300
C1808       C  0.61616214  0.88444517  0.34679107    -0.22800
C1809       C  0.67625411  0.88767716  0.33380704    -0.05900
H1810       H  0.66674987  0.88588509  0.40855140     0.14800
C1811       C  0.59234358  0.88343311  0.40356971    -0.16100
H1812       H  0.60205298  0.88378541  0.32941001     0.09100
H1813       H  0.64626097  0.92936374  0.19026053     0.07000
H1814       H  0.62946268  0.93844534  0.22801702     0.08200
H1815       H  0.61798728  0.92431212  0.18915285     0.07200
H1816       H  0.62718244  0.84260857  0.30435540     0.02100
H1817       H  0.65555466  0.84541836  0.30819352     0.02600
H1818       H  0.64429899  0.83192205  0.26827446     0.06100
H1819       H  0.68892832  0.88823007  0.35553926     0.05100
H1820       H  0.67717725  0.90239706  0.31683658    -0.00700
H1821       H  0.67939515  0.87395476  0.31498333     0.00800
H1822       H  0.58307821  0.89746271  0.39463917     0.04400
H1823       H  0.59255930  0.88299522  0.43499795     0.06400
H1824       H  0.58419728  0.86893275  0.39348139     0.07300
C1825       C  0.76783709  0.91556971  0.92225612    -0.22400
C1826       C  0.75857953  0.89585907  0.92917854     0.09600
C1827       C  0.76830261  0.87751488  0.91430696     0.10000
C1828       C  0.78782884  0.87921787  0.89509034    -0.17300
C1829       C  0.79781990  0.89891227  0.88968550    -0.27700
C1830       C  0.78717250  0.91744674  0.90265487     0.18300
C1831       C  0.73752751  0.89536459  0.94834990     0.12300
C1832       C  0.75790768  0.85619985  0.91805691    -0.12100
H1833       H  0.79559633  0.86493802  0.88522317     0.12600
C1834       C  0.79566001  0.93939615  0.89568013    -0.22900
H1835       H  0.75979369  0.92965201  0.93239700     0.08200
C1836       C  0.73491885  0.89107466  0.98745081     0.04600
C1837       C  0.71444304  0.89185579  0.00379013    -0.20100
C1838       C  0.69672465  0.89782793  0.98226432    -0.12400
C1839       C  0.69965380  0.90239241  0.94308013     0.13300
C1840       C  0.71988438  0.90095262  0.92688916    -0.22800
C1841       C  0.75378533  0.88660871  0.01216067    -0.05900
H1842       H  0.71236431  0.88850170  0.03368997     0.14800
C1843       C  0.68200344  0.90857128  0.91665603    -0.16100
H1844       H  0.72198430  0.90448895  0.89702149     0.09100
H1845       H  0.78404938  0.95177381  0.90404930     0.07000
H1846       H  0.79917882  0.94147842  0.86504257     0.08200
H1847       H  0.81012165  0.94218589  0.91270476     0.07200
H1848       H  0.74213025  0.85652631  0.90430225     0.02100
H1849       H  0.75588059  0.85205396  0.94835276     0.02600
H1850       H  0.76746729  0.84354941  0.90433917     0.06100
H1851       H  0.74904605  0.88402212  0.04215076     0.05100
H1852       H  0.76484060  0.90023615  0.01125465    -0.00700
H1853       H  0.76222115  0.87228088  0.00209124     0.00800
H1854       H  0.68512028  0.92458822  0.90514799     0.04400
H1855       H  0.66630251  0.90877807  0.93016378     0.06400
H1856       H  0.68128399  0.89719116  0.89265222     0.07300
C1857       C  0.82644385  0.72831753  0.79860021    -0.22400
C1858       C  0.84313813  0.74295390  0.79893527     0.09600
C1859       C  0.86379352  0.73614073  0.78945580     0.10000
C1860       C  0.86754474  0.71466415  0.78219901    -0.17300
C1861       C  0.85117347  0.69971017  0.78412312    -0.27700
C1862       C  0.83023937  0.70668859  0.79137832     0.18300
C1863       C  0.83933858  0.76519871  0.81095990     0.12300
C1864       C  0.88206330  0.75145710  0.78827781    -0.12100
H1865       H  0.88360675  0.70931093  0.77691182     0.12600
C1866       C  0.81218728  0.69121923  0.79404371    -0.22900
H1867       H  0.81059325  0.73369468  0.80551596     0.08200
C1868       C  0.83496610  0.78108997  0.78421780     0.04600
C1869       C  0.83681015  0.80240096  0.79499332    -0.20100
C1870       C  0.84291253  0.80819791  0.83190497    -0.12400
C1871       C  0.84532382  0.79230513  0.85957224     0.13300
C1872       C  0.84349032  0.77095214  0.84873915    -0.22800
C1873       C  0.82956372  0.77552117  0.74384648    -0.05900
H1874       H  0.83503416  0.81460474  0.77371639     0.14800
C1875       C  0.85113806  0.79727704  0.89997653    -0.16100
H1876       H  0.84669859  0.75869493  0.86934948     0.09100
H1877       H  0.79696436  0.69926618  0.80059547     0.07000
H1878       H  0.81532642  0.67959016  0.81686339     0.08200
H1879       H  0.81040587  0.68274673  0.76662943     0.07200
H1880       H  0.88418075  0.75889288  0.81655641     0.02100
H1881       H  0.87890463  0.76395013  0.76701050     0.02600
H1882       H  0.89714405  0.74350856  0.78038706     0.06100
H1883       H  0.82667327  0.78984559  0.72649217     0.05100
H1884       H  0.81500923  0.76569409  0.74336988    -0.00700
H1885       H  0.84277306  0.76651836  0.73062667     0.00800
H1886       H  0.83896979  0.79058843  0.91931829     0.04400
H1887       H  0.85209576  0.81449251  0.90561048     0.06400
H1888       H  0.86672007  0.79008511  0.90663820     0.07300
C1889       C  0.83302120  0.72731650  0.31610828    -0.22400
C1890       C  0.84964604  0.74187321  0.31255762     0.09600
C1891       C  0.86861547  0.73548660  0.29451792     0.10000
C1892       C  0.87099303  0.71441248  0.28263356    -0.17300
C1893       C  0.85484651  0.69943416  0.28797922    -0.27700
C1894       C  0.83531657  0.70617208  0.30409815     0.18300
C1895       C  0.84712706  0.76376761  0.32769539     0.12300
C1896       C  0.88650771  0.75085073  0.28820201    -0.12100
H1897       H  0.88599948  0.70931237  0.27065884     0.12600
C1898       C  0.81694629  0.69149570  0.31130060    -0.22900
H1899       H  0.81835623  0.73232005  0.32948668     0.08200
C1900       C  0.83550182  0.77918524  0.30780453     0.04600
C1901       C  0.83661272  0.80044183  0.31935610    -0.20100
C1902       C  0.84942904  0.80672969  0.34982587    -0.12400
C1903       C  0.85989785  0.79111864  0.37131606     0.13300
C1904       C  0.85840516  0.76978050  0.36028127    -0.22800
C1905       C  0.82319835  0.77345182  0.27275963    -0.05900
H1906       H  0.82897252  0.81247289  0.30236854     0.14800
C1907       C  0.87364344  0.79665158  0.40469069    -0.16100
H1908       H  0.86716106  0.75791085  0.37584464     0.09100
H1909       H  0.80276498  0.69745710  0.29618606     0.07000
H1910       H  0.81342311  0.69106404  0.34216063     0.08200
H1911       H  0.81975366  0.67509693  0.30175150     0.07200
H1912       H  0.89252422  0.75671101  0.31581012     0.02100
H1913       H  0.88082082  0.76442908  0.27116180     0.02600
H1914       H  0.89995587  0.74340533  0.27276502     0.06100
H1915       H  0.81549851  0.78749083  0.25995076     0.05100
H1916       H  0.81063400  0.76188676  0.28003080    -0.00700
H1917       H  0.83399614  0.76639085  0.25124852     0.00800
H1918       H  0.86785234  0.78817463  0.43022224     0.04400
H1919       H  0.87348860  0.81381552  0.41120544     0.06400
H1920       H  0.89022540  0.79176801  0.39877858     0.07300
C1921       C  0.86019067  0.60682228  0.51632448    -0.22400
C1922       C  0.86959817  0.62319913  0.53715141     0.09600
C1923       C  0.87826149  0.64066123  0.51801307     0.10000
C1924       C  0.87743815  0.64136235  0.47836064    -0.17300
C1925       C  0.86804117  0.62504186  0.45695445    -0.27700
C1926       C  0.85925066  0.60746515  0.47643813     0.18300
C1927       C  0.86986526  0.62211268  0.57912852     0.12300
C1928       C  0.88817967  0.65870582  0.53954058    -0.12100
H1929       H  0.88435271  0.65483033  0.46402394     0.12600
C1930       C  0.84837167  0.58961565  0.45588369    -0.22900
H1931       H  0.85343986  0.59353877  0.53147013     0.08200
C1932       C  0.85237253  0.62891600  0.60095051     0.04600
C1933       C  0.85354043  0.62823668  0.64064148    -0.20100
C1934       C  0.87165508  0.62055926  0.65902183    -0.12400
C1935       C  0.88934708  0.61410614  0.63710748     0.13300
C1936       C  0.88820784  0.61497271  0.59736841    -0.22800
C1937       C  0.83241880  0.63667740  0.58231177    -0.05900
H1938       H  0.83987501  0.63288415  0.65743589     0.14800
C1939       C  0.90975559  0.60670742  0.65463320    -0.16100
H1940       H  0.90174831  0.61011211  0.58045461     0.09100
H1941       H  0.84146795  0.57795770  0.47590072     0.07000
H1942       H  0.85989974  0.58102353  0.43768138     0.08200
H1943       H  0.83528730  0.59593661  0.43829092     0.07200
H1944       H  0.90182408  0.65285169  0.55624694     0.02100
H1945       H  0.87632350  0.66584699  0.55907658     0.02600
H1946       H  0.89400484  0.67128411  0.52024889     0.06100
H1947       H  0.82023981  0.64138787  0.60353292     0.05100
H1948       H  0.82564222  0.62396236  0.56432378    -0.00700
H1949       H  0.83603327  0.65061296  0.56437800     0.00800
H1950       H  0.91291411  0.59010608  0.64602991     0.04400
H1951       H  0.90958297  0.60760037  0.68601774     0.06400
H1952       H  0.92297906  0.61680505  0.64448804     0.07300
C1953       C  0.84040946  0.60489851  0.09719921    -0.22400
C1954       C  0.85558017  0.61709124  0.07836279     0.09600
C1955       C  0.87044265  0.62882736  0.09953915     0.10000
C1956       C  0.87022081  0.62755695  0.13934367    -0.17300
C1957       C  0.85549093  0.61474877  0.15833314    -0.27700
C1958       C  0.84004984  0.60363271  0.13691098     0.18300
C1959       C  0.85511217  0.61791018  0.03639395     0.12300
C1960       C  0.88656366  0.64258313  0.08002726    -0.12100
H1961       H  0.88183619  0.63626568  0.15565511     0.12600
C1962       C  0.82262007  0.59103407  0.15557908    -0.22900
H1963       H  0.82875988  0.59636825  0.08064210     0.08200
C1964       C  0.86594679  0.60293526  0.01379808     0.04600
C1965       C  0.86569617  0.60498546  0.97412726    -0.20100
C1966       C  0.85501338  0.62181144  0.95664390    -0.12400
C1967       C  0.84339458  0.63628264  0.97948862     0.13300
C1968       C  0.84356756  0.63405413  0.01905741    -0.22800
C1969       C  0.87807226  0.58507209  0.03164025    -0.05900
H1970       H  0.87458151  0.59388994  0.95679268     0.14800
C1971       C  0.83047093  0.65392055  0.96253720    -0.16100
H1972       H  0.83496269  0.64520651  0.03672855     0.09100
H1973       H  0.82930094  0.57720999  0.17062736     0.07000
H1974       H  0.81109538  0.58489866  0.13453423     0.08200
H1975       H  0.81379412  0.60120155  0.17589479     0.07200
H1976       H  0.87838835  0.65488271  0.06312449     0.02100
H1977       H  0.89657860  0.63280258  0.06087824     0.02600
H1978       H  0.89707077  0.65064483  0.10068827     0.06100
H1979       H  0.88576605  0.57483496  0.00995392     0.05100
H1980       H  0.86713787  0.57513572  0.04866754    -0.00700
H1981       H  0.89059104  0.59151649  0.05040764     0.00800
H1982       H  0.82097648  0.66235762  0.98443414     0.04400
H1983       H  0.81933741  0.64739089  0.94122351     0.06400
H1984       H  0.84096309  0.66577946  0.94903691     0.07300
C1985       C  0.64102775  0.73767265  0.60501181    -0.22400
C1986       C  0.65578734  0.74321536  0.57689730     0.09600
C1987       C  0.66941775  0.72760883  0.56190228     0.10000
C1988       C  0.66699713  0.70649187  0.57350416    -0.17300
C1989       C  0.65100230  0.70067157  0.59922569    -0.27700
C1990       C  0.63834710  0.71655451  0.61611659     0.18300
C1991       C  0.65497884  0.76490541  0.56094105     0.12300
C1992       C  0.68555559  0.73306796  0.53197475    -0.12100
H1993       H  0.67637411  0.69423785  0.55993217     0.12600
C1994       C  0.62121377  0.71152399  0.64452895    -0.22900
H1995       H  0.63068851  0.74973597  0.61676853     0.08200
C1996       C  0.63929180  0.77053589  0.53438153     0.04600
C1997       C  0.63685483  0.79182336  0.52416038    -0.20100
C1998       C  0.64996124  0.80757332  0.53937614    -0.12400
C1999       C  0.66680791  0.80164529  0.56354195     0.13300
C2000       C  0.66904951  0.78035152  0.57414195    -0.22800
C2001       C  0.62469798  0.75414605  0.51775004    -0.05900
H2002       H  0.62382121  0.79638827  0.50601227     0.14800
C2003       C  0.68185824  0.81749105  0.58056596    -0.16100
H2004       H  0.68128230  0.77592719  0.59409068     0.09100
H2005       H  0.60557567  0.71618204  0.63294087     0.07000
H2006       H  0.62410423  0.72049817  0.67111287     0.08200
H2007       H  0.62066424  0.69449464  0.65184317     0.07200
H2008       H  0.69682569  0.74492796  0.54336181     0.02100
H2009       H  0.67749942  0.73972826  0.50675855     0.02600
H2010       H  0.69473742  0.71897158  0.52275887     0.06100
H2011       H  0.61353001  0.76117174  0.49705395     0.05100
H2012       H  0.61524775  0.74659725  0.54057895    -0.00700
H2013       H  0.63416190  0.74186712  0.50280319     0.00800
H2014       H  0.68028282  0.81735082  0.61193301     0.04400
H2015       H  0.67904986  0.83382879  0.57061158     0.06400
H2016       H  0.69835867  0.81315743  0.57278835     0.07300
C2017       C  0.61087499  0.46709435  0.51060379    -0.22400
C2018       C  0.62575576  0.48026922  0.49291522     0.09600
C2019       C  0.63913122  0.47188314  0.46445088     0.10000
C2020       C  0.63778432  0.45031195  0.45519790    -0.17300
C2021       C  0.62335621  0.43690660  0.47371021    -0.27700
C2022       C  0.60953263  0.44548906  0.50148478     0.18300
C2023       C  0.62825763  0.50226142  0.50710059     0.12300
C2024       C  0.65499669  0.48563673  0.44422689    -0.12100
H2025       H  0.64846266  0.44372027  0.43410935     0.12600
C2026       C  0.59432700  0.43172974  0.52335308    -0.22900
H2027       H  0.60082399  0.47361651  0.53272204     0.08200
C2028       C  0.61367376  0.51835632  0.49828144     0.04600
C2029       C  0.61624174  0.53856893  0.51428062    -0.20100
C2030       C  0.63299147  0.54312762  0.53930955    -0.12400
C2031       C  0.64789610  0.52688823  0.54740153     0.13300
C2032       C  0.64524317  0.50675462  0.53118716    -0.22800
C2033       C  0.59546582  0.51420288  0.47185836    -0.05900
H2034       H  0.60481833  0.55077944  0.50761809     0.14800
C2035       C  0.66683287  0.53042112  0.57258026    -0.16100
H2036       H  0.65637539  0.49424253  0.53771468     0.09100
H2037       H  0.58261977  0.42458123  0.50375998     0.07000
H2038       H  0.58542693  0.44089812  0.54509836     0.08200
H2039       H  0.60315190  0.41900845  0.53811185     0.07200
H2040       H  0.66658932  0.49209735  0.46477695     0.02100
H2041       H  0.64667577  0.49890760  0.43012526     0.02600
H2042       H  0.66391916  0.47666709  0.42224421     0.06100
H2043       H  0.58571139  0.52859022  0.46741603     0.05100
H2044       H  0.58506360  0.50174020  0.48380391    -0.00700
H2045       H  0.60162967  0.50890375  0.44386869     0.00800
H2046       H  0.66157552  0.53376566  0.60205691     0.04400
H2047       H  0.67645388  0.54376476  0.56160054     0.06400
H2048       H  0.67726229  0.51629258  0.57364647     0.07300
C2049       C  0.53557221  0.64769217  0.53728957    -0.22400
C2050       C  0.52746108  0.63335931  0.51063785     0.09600
C2051       C  0.54101660  0.61793952  0.49466627     0.10000
C2052       C  0.56250764  0.61757140  0.50487070    -0.17300
C2053       C  0.57096287  0.63265096  0.52987974    -0.27700
C2054       C  0.55717049  0.64758481  0.54707637     0.18300
C2055       C  0.50516019  0.63572082  0.49772329     0.12300
C2056       C  0.53286011  0.60211513  0.46629017    -0.12100
H2057       H  0.57295732  0.60601658  0.49192027     0.12600
C2058       C  0.56502395  0.66318993  0.57618967    -0.22900
H2059       H  0.52504615  0.65938075  0.54968747     0.08200
C2060       C  0.48787758  0.62751326  0.51836177     0.04600
C2061       C  0.46715678  0.63009846  0.50438599    -0.20100
C2062       C  0.46318834  0.64076771  0.47007386    -0.12400
C2063       C  0.48084152  0.64879453  0.44926750     0.13300
C2064       C  0.50142643  0.64623583  0.46358433    -0.22800
C2065       C  0.49138125  0.61581648  0.55490061    -0.05900
H2066       H  0.45399183  0.62375615  0.52051888     0.14800
C2067       C  0.47853665  0.65965824  0.41146618    -0.16100
H2068       H  0.51485949  0.65236993  0.44785595     0.09100
H2069       H  0.55185651  0.67267822  0.58845712     0.07000
H2070       H  0.57639829  0.67436855  0.56309827     0.08200
H2071       H  0.57286202  0.65462152  0.59971842     0.07200
H2072       H  0.52681666  0.61043250  0.44086942     0.02100
H2073       H  0.51984151  0.59276746  0.47919801     0.02600
H2074       H  0.54545984  0.59099136  0.45689871     0.06100
H2075       H  0.47624930  0.61015270  0.56738351     0.05100
H2076       H  0.49911682  0.62640221  0.57582640    -0.00700
H2077       H  0.50170212  0.60189073  0.54963127     0.00800
H2078       H  0.46961278  0.67465518  0.41496142     0.04400
H2079       H  0.47029497  0.64906522  0.39117138     0.06400
H2080       H  0.49412943  0.66374635  0.39877909     0.07300
C2081       C  0.72463564  0.59979469  0.69824536    -0.22400
C2082       C  0.74020347  0.61213474  0.68087901     0.09600
C2083       C  0.73530872  0.62327701  0.64742480     0.10000
C2084       C  0.71484348  0.62168104  0.63190385    -0.17300
C2085       C  0.69917979  0.60903291  0.64893876    -0.27700
C2086       C  0.70419354  0.59818082  0.68311284     0.18300
C2087       C  0.76172719  0.61225735  0.69773485     0.12300
C2088       C  0.75160558  0.63708554  0.62854158    -0.12100
H2089       H  0.71106842  0.63035382  0.60635927     0.12600
C2090       C  0.68804751  0.58546761  0.70500919    -0.22900
H2091       H  0.72857837  0.59135384  0.72398584     0.08200
C2092       C  0.76652823  0.62403614  0.73063896     0.04600
C2093       C  0.78671352  0.62219716  0.74712462    -0.20100
C2094       C  0.80224218  0.60871181  0.73159828    -0.12400
C2095       C  0.79741624  0.59736659  0.69771458     0.13300
C2096       C  0.77721043  0.59921629  0.68161764    -0.22800
C2097       C  0.75039416  0.63871565  0.74802258    -0.05900
H2098       H  0.79033664  0.63129779  0.77235849     0.14800
C2099       C  0.81347499  0.58374830  0.67724700    -0.16100
H2100       H  0.77334382  0.59029414  0.65627443     0.09100
H2101       H  0.69449255  0.57956764  0.73226410     0.07000
H2102       H  0.68311795  0.57145115  0.68827435     0.08200
H2103       H  0.67406197  0.59541757  0.71182246     0.07200
H2104       H  0.76541914  0.62740543  0.61957753     0.02100
H2105       H  0.75696210  0.64946484  0.64871640     0.02600
H2106       H  0.74513545  0.64502918  0.60304894     0.06100
H2107       H  0.75679809  0.64711432  0.77318279     0.05100
H2108       H  0.73624668  0.62963408  0.75715183    -0.00700
H2109       H  0.74556664  0.65072551  0.72685128     0.00800
H2110       H  0.81777869  0.56994866  0.69495223     0.04400
H2111       H  0.82780902  0.59316518  0.67049867     0.06400
H2112       H  0.80722589  0.57746535  0.65005820     0.07300
C2113       C  0.62961898  0.73951168  0.09683955    -0.22400
C2114       C  0.64933934  0.74547004  0.08198618     0.09600
C2115       C  0.66610033  0.73067099  0.08177094     0.10000
C2116       C  0.66207864  0.70961686  0.09276835    -0.17300
C2117       C  0.64167905  0.70320611  0.10401225    -0.27700
C2118       C  0.62562363  0.71865930  0.10807187     0.18300
C2119       C  0.65136162  0.76703612  0.06552480     0.12300
C2120       C  0.68784773  0.73685028  0.06821047    -0.12100
H2121       H  0.67443523  0.69782917  0.08968722     0.12600
C2122       C  0.60391954  0.71350211  0.12336546    -0.22900
H2123       H  0.61696729  0.75108634  0.09838456     0.08200
C2124       C  0.64154824  0.77227770  0.03077495     0.04600
C2125       C  0.63990896  0.79361670  0.01992134    -0.20100
C2126       C  0.64813916  0.80977285  0.04277438    -0.12400
C2127       C  0.65953817  0.80430276  0.07589296     0.13300
C2128       C  0.66092570  0.78303519  0.08692311    -0.22800
C2129       C  0.63222312  0.75537287  0.00575352    -0.05900
H2130       H  0.63096556  0.79778115  0.99485818     0.14800
C2131       C  0.66950092  0.82065615  0.10131789    -0.16100
H2132       H  0.66859593  0.77904404  0.11340587     0.09100
H2133       H  0.59187980  0.71618368  0.10103325     0.07000
H2134       H  0.60034735  0.72393990  0.14794880     0.08200
H2135       H  0.60261927  0.69695434  0.13337078     0.07200
H2136       H  0.69419757  0.74964385  0.08651863     0.02100
H2137       H  0.68702233  0.74253982  0.03850572     0.02600
H2138       H  0.69905325  0.72332862  0.06921595     0.06100
H2139       H  0.62552418  0.76209286  0.97933148     0.05100
H2140       H  0.61932047  0.74698963  0.02093121    -0.00700
H2141       H  0.64474304  0.74385069  0.99771769     0.00800
H2142       H  0.66176798  0.82033378  0.12964749     0.04400
H2143       H  0.66824328  0.83684293  0.08976282     0.06400
H2144       H  0.68660733  0.81708121  0.10464847     0.07300
C2145       C  0.63965876  0.47303934  0.96689977    -0.22400
C2146       C  0.62421295  0.48090488  0.99185533     0.09600
C2147       C  0.60745822  0.46759049  0.00333269     0.10000
C2148       C  0.60741193  0.44625095  0.99185418    -0.17300
C2149       C  0.62367973  0.43792562  0.96885149    -0.27700
C2150       C  0.63938369  0.45187778  0.95460876     0.18300
C2151       C  0.62647329  0.50280344  0.00696613     0.12300
C2152       C  0.58993613  0.47581528  0.02844259    -0.12100
H2153       H  0.59518041  0.43579216  0.00248121     0.12600
C2154       C  0.65583672  0.44518650  0.92587526    -0.22900
H2155       H  0.65216043  0.48346457  0.95718612     0.08200
C2156       C  0.63779334  0.50685837  0.04058701     0.04600
C2157       C  0.63967585  0.52772487  0.05399142    -0.20100
C2158       C  0.63051364  0.54491587  0.03468804    -0.12400
C2159       C  0.61924115  0.54069060  0.00053269     0.13300
C2160       C  0.61745237  0.51971810  0.98726351    -0.22800
C2161       C  0.64793029  0.48908484  0.06233532    -0.05900
H2162       H  0.64827359  0.53053041  0.08004419     0.14800
C2163       C  0.60920525  0.55797505  0.97733707    -0.16100
H2164       H  0.60890130  0.51643038  0.96131979     0.09100
H2165       H  0.67182114  0.44599517  0.93877740     0.07000
H2166       H  0.65531567  0.45604865  0.90121861     0.08200
H2167       H  0.65319253  0.42905300  0.91458941     0.07200
H2168       H  0.58171612  0.48906442  0.01408812     0.02100
H2169       H  0.59655706  0.48156177  0.05568816     0.02600
H2170       H  0.57804571  0.46338648  0.03482408     0.06100
H2171       H  0.65621649  0.49490318  0.08804360     0.05100
H2172       H  0.65970386  0.48086632  0.04404890    -0.00700
H2173       H  0.63566361  0.47760185  0.07145707     0.00800
H2174       H  0.62139464  0.56967545  0.96873767     0.04400
H2175       H  0.59648145  0.56586132  0.99395930     0.06400
H2176       H  0.60185535  0.55171354  0.95104265     0.07300
C2177       C  0.49778121  0.64076697  0.95999545    -0.22400
C2178       C  0.50142999  0.63321172  0.99664456     0.09600
C2179       C  0.48408334  0.62832102  0.02030216     0.10000
C2180       C  0.46337670  0.63136831  0.00690286    -0.17300
C2181       C  0.45953734  0.63953310  0.97048857    -0.27700
C2182       C  0.47712589  0.64401063  0.94650009     0.18300
C2183       C  0.52358710  0.63189809  0.01032544     0.12300
C2184       C  0.48747122  0.61992577  0.05971333    -0.12100
H2185       H  0.45012138  0.62763333  0.02527079     0.12600
C2186       C  0.47447790  0.65177608  0.90638983    -0.22900
H2187       H  0.51125753  0.64443324  0.94204399     0.08200
C2188       C  0.53682807  0.61455674  0.00168598     0.04600
C2189       C  0.55814982  0.61497362  0.01310625    -0.20100
C2190       C  0.56651626  0.63238622  0.03293416    -0.12400
C2191       C  0.55274344  0.64914799  0.04353326     0.13300
C2192       C  0.53162600  0.64884042  0.03140018    -0.22800
C2193       C  0.52853145  0.59585356  0.97984326    -0.05900
H2194       H  0.56855261  0.60208884  0.00494650     0.14800
C2195       C  0.55951479  0.66742304  0.06822785    -0.16100
H2196       H  0.52127364  0.66196179  0.03852235     0.09100
H2197       H  0.46443908  0.64058319  0.89013626     0.07000
H2198       H  0.48990706  0.65307097  0.89133938     0.08200
H2199       H  0.46718116  0.66773189  0.90647331     0.07200
H2200       H  0.49639867  0.63163750  0.07683062     0.02100
H2201       H  0.49660432  0.60494467  0.05826015     0.02600
H2202       H  0.47222725  0.61671506  0.07441789     0.06100
H2203       H  0.54090364  0.58356782  0.97567093     0.05100
H2204       H  0.52299559  0.60100868  0.95150501    -0.00700
H2205       H  0.51510164  0.58862878  0.99552828     0.00800
H2206       H  0.55956469  0.68220759  0.05135624     0.04400
H2207       H  0.57529702  0.66513040  0.08113859     0.06400
H2208       H  0.54815561  0.66925232  0.09214085     0.07300
C2209       C  0.61706868  0.63714993  0.86779030    -0.22400
C2210       C  0.63086642  0.62301517  0.84986435     0.09600
C2211       C  0.64441769  0.61020921  0.87180362     0.10000
C2212       C  0.64429855  0.61240326  0.91150376    -0.17300
C2213       C  0.63101965  0.62721398  0.92941373    -0.27700
C2214       C  0.61674324  0.63927091  0.90726309     0.18300
C2215       C  0.63096091  0.62236731  0.80795672     0.12300
C2216       C  0.65881026  0.59418808  0.85332700    -0.12100
H2217       H  0.65485671  0.60285332  0.92852028     0.12600
C2218       C  0.60055010  0.65389913  0.92492938    -0.22900
H2219       H  0.60654748  0.64667841  0.85064004     0.08200
C2220       C  0.61434249  0.61290060  0.78747082     0.04600
C2221       C  0.61503908  0.61302151  0.74775406    -0.20100
C2222       C  0.63196721  0.62234008  0.72800208    -0.12400
C2223       C  0.64858059  0.63204907  0.74874593     0.13300
C2224       C  0.64761264  0.63216455  0.78847687    -0.22800
C2225       C  0.59618667  0.60217762  0.80747902    -0.05900
H2226       H  0.60250734  0.60534882  0.73193620     0.14800
C2227       C  0.66816530  0.64140197  0.73073497    -0.16100
H2228       H  0.66023879  0.63955664  0.80450674     0.09100
H2229       H  0.58957584  0.66046433  0.90342516     0.07000
H2230       H  0.60847501  0.66748436  0.93881757     0.08200
H2231       H  0.59088609  0.64513806  0.94604573     0.07200
H2232       H  0.67018511  0.60223677  0.83415274     0.02100
H2233       H  0.64924286  0.58277623  0.83665452     0.02600
H2234       H  0.66802812  0.58518988  0.87463842     0.06100
H2235       H  0.58485629  0.59506212  0.78710301     0.05100
H2236       H  0.58737391  0.61379524  0.82511744    -0.00700
H2237       H  0.60234002  0.58939089  0.82590356     0.00800
H2238       H  0.66904037  0.65850830  0.73765534     0.04400
H2239       H  0.66889095  0.63961920  0.69962045     0.06400
H2240       H  0.68243949  0.63346870  0.74228412     0.07300
C2241       C  0.62909321  0.60700692  0.37041166    -0.22400
C2242       C  0.64164459  0.62131582  0.34999648     0.09600
C2243       C  0.65467973  0.63568960  0.36964426     0.10000
C2244       C  0.65389204  0.63628750  0.40938309    -0.17300
C2245       C  0.64085867  0.62240281  0.42995160    -0.27700
C2246       C  0.62874178  0.60714911  0.41022204     0.18300
C2247       C  0.64082073  0.62087973  0.30802396     0.12300
C2248       C  0.66954802  0.65020251  0.34871650    -0.12100
H2249       H  0.66338099  0.64779166  0.42453844     0.12600
C2250       C  0.61475720  0.59161120  0.43076503    -0.22900
H2251       H  0.61933223  0.59584005  0.35500950     0.08200
C2252       C  0.65036707  0.60439842  0.28726029     0.04600
C2253       C  0.64831148  0.60399214  0.24779325    -0.20100
C2254       C  0.63704623  0.61975022  0.22814217    -0.12400
C2255       C  0.62809405  0.63674603  0.24901750     0.13300
C2256       C  0.62992640  0.63693401  0.28880527    -0.22800
C2257       C  0.66302760  0.58739019  0.30666367    -0.05900
H2258       H  0.65584167  0.59126298  0.23212531     0.14800
C2259       C  0.61625328  0.65442495  0.22997419    -0.16100
H2260       H  0.62273562  0.64960622  0.30513085     0.09100
H2261       H  0.62454414  0.58114984  0.44884761     0.07000
H2262       H  0.60584937  0.58138997  0.41075221     0.08200
H2263       H  0.60310400  0.60022946  0.44865616     0.07200
H2264       H  0.66045962  0.66092730  0.33000938     0.02100
H2265       H  0.68071743  0.64069333  0.33122798     0.02600
H2266       H  0.67898230  0.66008151  0.36850286     0.06100
H2267       H  0.66997828  0.57603164  0.28600312     0.05100
H2268       H  0.65273725  0.57835796  0.32635322    -0.00700
H2269       H  0.67619030  0.59468281  0.32285997     0.00800
H2270       H  0.60298768  0.64787977  0.21305284     0.04400
H2271       H  0.62713311  0.66343298  0.21125991     0.06400
H2272       H  0.60950743  0.66573496  0.25093912     0.07300
C2273       C  0.72244691  0.63339647  0.18980925    -0.22400
C2274       C  0.73734440  0.61719920  0.18556144     0.09600
C2275       C  0.73362983  0.60101939  0.15866716     0.10000
C2276       C  0.71457425  0.60089063  0.13801213    -0.17300
C2277       C  0.69930505  0.61687858  0.14280531    -0.27700
C2278       C  0.70365564  0.63365874  0.16864670     0.18300
C2279       C  0.75667967  0.61754655  0.20968034     0.12300
C2280       C  0.74982040  0.58394764  0.15162670    -0.12100
H2281       H  0.71140162  0.58801329  0.11851688     0.12600
C2282       C  0.68826934  0.65148349  0.17582448    -0.22900
H2283       H  0.72540994  0.64575584  0.21047255     0.08200
C2284       C  0.77287362  0.63258078  0.20398394     0.04600
C2285       C  0.79135775  0.63151316  0.22590273    -0.20100
C2286       C  0.79440182  0.61544791  0.25284307    -0.12400
C2287       C  0.77765370  0.60109937  0.25999819     0.13300
C2288       C  0.75891860  0.60250426  0.23859438    -0.22800
C2289       C  0.77118566  0.64909747  0.17344178    -0.05900
H2290       H  0.80416895  0.64242085  0.21994344     0.14800
C2291       C  0.77933687  0.58440608  0.29022253    -0.16100
H2292       H  0.74615593  0.59140573  0.24363959     0.09100
H2293       H  0.69420093  0.66277280  0.19749379     0.07000
H2294       H  0.67303238  0.64511716  0.18642688     0.08200
H2295       H  0.68577452  0.66054159  0.14933392     0.07200
H2296       H  0.75227750  0.57459715  0.17779448     0.02100
H2297       H  0.76507479  0.59120349  0.14285940     0.02600
H2298       H  0.74474398  0.57292115  0.12885302     0.06100
H2299       H  0.78567172  0.65899602  0.17171597     0.05100
H2300       H  0.75760718  0.65974392  0.17939237    -0.00700
H2301       H  0.76890159  0.64132250  0.14548690     0.00800
H2302       H  0.76418991  0.57572482  0.29390633     0.04400
H2303       H  0.79163869  0.57261952  0.28256793     0.06400
H2304       H  0.78336327  0.59191279  0.31776317     0.07300
C2305       C  0.23183470  0.88018409  0.66586478    -0.22400
C2306       C  0.23804874  0.86023167  0.67881707     0.09600
C2307       C  0.22342436  0.84340848  0.67847997     0.10000
C2308       C  0.20243225  0.84725541  0.66714633    -0.17300
C2309       C  0.19582155  0.86762954  0.65671573    -0.27700
C2310       C  0.21095455  0.88408585  0.65462482     0.18300
C2311       C  0.25991232  0.85777927  0.69321657     0.12300
C2312       C  0.22979699  0.82169583  0.69149869    -0.12100
H2313       H  0.19080898  0.83471061  0.66923424     0.12600
C2314       C  0.20549926  0.90603169  0.64124897    -0.22900
H2315       H  0.24328237  0.89295246  0.66533056     0.08200
C2316       C  0.27689989  0.85378608  0.66822244     0.04600
C2317       C  0.29766251  0.85530458  0.68172433    -0.20100
C2318       C  0.30186902  0.86123152  0.71937709    -0.12400
C2319       C  0.28488090  0.86398786  0.74502990     0.13300
C2320       C  0.26401201  0.86212602  0.73161060    -0.22800
C2321       C  0.27315383  0.84907718  0.62687639    -0.05900
H2322       H  0.31076362  0.85332929  0.66204488     0.14800
C2323       C  0.28822040  0.87001760  0.78589718    -0.16100
H2324       H  0.25087067  0.86519322  0.75073288     0.09100
H2325       H  0.21613692  0.91042635  0.61739928     0.07000
H2326       H  0.20771910  0.91749952  0.66479626     0.08200
H2327       H  0.18901546  0.90732201  0.63080666     0.07200
H2328       H  0.23521241  0.82242407  0.72138483     0.02100
H2329       H  0.24287982  0.81560601  0.67342044     0.02600
H2330       H  0.21641228  0.81036234  0.68981561     0.06100
H2331       H  0.28824276  0.84647751  0.61123624     0.05100
H2332       H  0.26478040  0.86253035  0.61345379    -0.00700
H2333       H  0.26337636  0.83460783  0.62398314     0.00800
H2334       H  0.28079148  0.88562033  0.79161212     0.04400
H2335       H  0.30521145  0.87100282  0.79349024     0.06400
H2336       H  0.28072840  0.85800223  0.80448639     0.07300
C2337       C  0.00010548  0.86350626  0.71990000    -0.22400
C2338       C  0.99635577  0.87425522  0.75397015     0.09600
C2339       C  0.01356760  0.88224357  0.77482344     0.10000
C2340       C  0.03426541  0.87953168  0.76072753    -0.17300
C2341       C  0.03823765  0.86884931  0.72625067    -0.27700
C2342       C  0.02070479  0.86063869  0.70566237     0.18300
C2343       C  0.97410424  0.87660743  0.76695373     0.12300
C2344       C  0.01003174  0.89375104  0.81173953    -0.12100
H2345       H  0.04739558  0.88589544  0.77678460     0.12600
C2346       C  0.02318578  0.84920281  0.66829508    -0.22900
H2347       H  0.98668677  0.85738886  0.70423699     0.08200
C2348       C  0.96090719  0.89265353  0.75256238     0.04600
C2349       C  0.93922611  0.89253813  0.76155271    -0.20100
C2350       C  0.93028153  0.87640807  0.78380381     0.13200
C2351       C  0.94377878  0.86081095  0.79950265     0.13300
C2352       C  0.96554757  0.86122896  0.79101324    -0.22800
C2353       C  0.96961754  0.90952880  0.72683202    -0.05900
H2354       H  0.92901830  0.90449940  0.74941573     0.14800
C2355       C  0.93548183  0.84372468  0.82527374    -0.16100
H2356       H  0.97586048  0.84901423  0.80201123     0.09100
H2357       H  0.00766366  0.84462834  0.65605635     0.07000
H2358       H  0.03240058  0.83444272  0.67232520     0.08200
H2359       H  0.03123548  0.85958369  0.64741397     0.07200
H2360       H  0.00198628  0.88314547  0.83225217     0.02100
H2361       H  0.99998193  0.90788368  0.80692343     0.02600
H2362       H  0.02518117  0.89905989  0.82450222     0.06100
H2363       H  0.95717810  0.92093706  0.71818261     0.05100
H2364       H  0.97630044  0.90219030  0.70077158    -0.00700
H2365       H  0.98227482  0.91841991  0.74168837     0.00800
H2366       H  0.92493349  0.83288083  0.80938960     0.04400
H2367       H  0.92667483  0.85094910  0.84935459     0.06400
H2368       H  0.94851520  0.83401947  0.83715782     0.07300
C2369       C  0.10936895  0.01766333  0.75745182    -0.22400
C2370       C  0.12389071  0.00274743  0.77060782     0.09600
C2371       C  0.13978480  0.00900080  0.79621763     0.10000
C2372       C  0.14062406  0.03011107  0.80856068    -0.17300
C2373       C  0.12597297  0.04529300  0.79579598    -0.27700
C2374       C  0.11012602  0.03883219  0.76953807     0.18300
C2375       C  0.12215607  0.98059814  0.75715356     0.12300
C2376       C  0.15575502  0.99331237  0.81071223    -0.12100
H2377       H  0.15286185  0.03471887  0.82837096     0.12600
C2378       C  0.09368709  0.05380406  0.75420804    -0.22900
H2379       H  0.09728615  0.01261403  0.73764602     0.08200
C2380       C  0.10861413  0.96596453  0.77514484     0.04600
C2381       C  0.10835397  0.94485540  0.76260269    -0.20100
C2382       C  0.12158165  0.93805793  0.73286129    -0.12400
C2383       C  0.13438026  0.95303172  0.71371428     0.13300
C2384       C  0.13453673  0.97409932  0.72621804    -0.22800
C2385       C  0.09507806  0.97249282  0.80844089    -0.05900
H2386       H  0.09872021  0.93336388  0.77750549     0.14800
C2387       C  0.14799328  0.94736018  0.67995286    -0.16100
H2388       H  0.14463330  0.98549872  0.71207366     0.09100
H2389       H  0.08434917  0.06079219  0.77786604     0.07000
H2390       H  0.08239378  0.04573653  0.73492860     0.08200
H2391       H  0.10155401  0.06642689  0.73762791     0.07200
H2392       H  0.16495199  0.98663112  0.78660120     0.02100
H2393       H  0.14749264  0.98030218  0.82575267     0.02600
H2394       H  0.16707268  0.00073435  0.83075595     0.06100
H2395       H  0.08559545  0.95907658  0.81954301     0.05100
H2396       H  0.08398928  0.98518952  0.79975734    -0.00700
H2397       H  0.10528220  0.97844552  0.83170323     0.00800
H2398       H  0.14383193  0.95771847  0.65573549     0.04400
H2399       H  0.14580000  0.93081437  0.67036142     0.06400
H2400       H  0.16493085  0.94978315  0.68706794     0.07300
C2401       C  0.23248681  0.86260883  0.15659946    -0.22400
C2402       C  0.23755798  0.85123176  0.18944259     0.09600
C2403       C  0.22130749  0.84133945  0.21034985     0.10000
C2404       C  0.20018026  0.84406013  0.19911849    -0.17300
C2405       C  0.19499431  0.85677824  0.16795735    -0.27700
C2406       C  0.21134109  0.86564311  0.14573268     0.18300
C2407       C  0.25955809  0.85230474  0.20379705     0.12300
C2408       C  0.22620838  0.82881424  0.24547262    -0.12100
H2409       H  0.18755032  0.83756332  0.21643596     0.12600
C2410       C  0.20692646  0.87911662  0.11153795    -0.22900
H2411       H  0.24504408  0.87014266  0.14052970     0.08200
C2412       C  0.27560934  0.83868633  0.19035729     0.04600
C2413       C  0.29668237  0.84228553  0.20136982    -0.20100
C2414       C  0.30201499  0.85954897  0.22459016    -0.12400
C2415       C  0.28577474  0.87258814  0.23931509     0.13300
C2416       C  0.26470911  0.86865057  0.22906497    -0.22800
C2417       C  0.27059478  0.82104484  0.16310185    -0.05900
H2418       H  0.30922729  0.83260272  0.18941308     0.14800
C2419       C  0.29025858  0.89120528  0.26476987    -0.16100
H2420       H  0.25229536  0.87903933  0.23944988     0.09100
H2421       H  0.21490190  0.87214338  0.08631685     0.07000
H2422       H  0.21319116  0.89529466  0.11631080     0.08200
H2423       H  0.18978177  0.88031577  0.10518948     0.07200
H2424       H  0.23400917  0.83912020  0.26676841     0.02100
H2425       H  0.23694341  0.81550417  0.23815574     0.02600
H2426       H  0.21164366  0.82217148  0.25855300     0.06100
H2427       H  0.28499074  0.81193143  0.15516055     0.05100
H2428       H  0.26363995  0.82763716  0.13680098    -0.00700
H2429       H  0.25908591  0.81001726  0.17630021     0.00800
H2430       H  0.28503489  0.90598235  0.25070643     0.04400
H2431       H  0.30728915  0.89273568  0.27181275     0.06400
H2432       H  0.28138483  0.88937775  0.29180551     0.07300
C2433       C  0.99805508  0.86902749  0.20659221    -0.22400
C2434       C  0.99385508  0.87467426  0.24426830     0.09600
C2435       C  0.01087489  0.87899787  0.26886230     0.10000
C2436       C  0.03180658  0.87742566  0.25519773    -0.17300
C2437       C  0.03618442  0.87148922  0.21742495    -0.27700
C2438       C  0.01888665  0.86743442  0.19271589     0.18300
C2439       C  0.97141318  0.87541304  0.25718550     0.12300
C2440       C  0.00689111  0.88545753  0.30938843    -0.12100
H2441       H  0.04481778  0.88069129  0.27427934     0.12600
C2442       C  0.02198396  0.86199897  0.15137329    -0.22900
H2443       H  0.98484233  0.86580451  0.18791037     0.08200
C2444       C  0.95807679  0.89262335  0.24857475     0.04600
C2445       C  0.93646820  0.89167200  0.25822164    -0.20100
C2446       C  0.92772599  0.87374435  0.27585130    -0.12400
C2447       C  0.94139892  0.85676549  0.28562411     0.13300
C2448       C  0.96302579  0.85790059  0.27618430    -0.22800
C2449       C  0.96664762  0.91190731  0.22888478    -0.05900
H2450       H  0.92620949  0.90472661  0.25067513     0.14800
C2451       C  0.93354910  0.83746004  0.30636167    -0.16100
H2452       H  0.97342341  0.84479299  0.28280847     0.09100
H2453       H  0.00667281  0.86083510  0.13611658     0.07000
H2454       H  0.02998511  0.84645756  0.14850185     0.08200
H2455       H  0.03153558  0.87446077  0.13728894     0.07200
H2456       H  0.99825620  0.87271120  0.32447606     0.02100
H2457       H  0.99723440  0.90012534  0.31013210     0.02600
H2458       H  0.02189947  0.88853127  0.32475780     0.06100
H2459       H  0.95418738  0.92406131  0.22464998     0.05100
H2460       H  0.97309682  0.90746835  0.20063866    -0.00700
H2461       H  0.97945733  0.91902045  0.24619992     0.00800
H2462       H  0.94676694  0.82681416  0.31442913     0.04400
H2463       H  0.92274594  0.82818022  0.28802431     0.06400
H2464       H  0.92519697  0.84228523  0.33277580     0.07300
C2465       C  0.11086901  0.01864180  0.24870305    -0.22400
C2466       C  0.12542113  0.00361911  0.26152201     0.09600
C2467       C  0.14140640  0.00986101  0.28698754     0.10000
C2468       C  0.14224106  0.03094283  0.29964991    -0.17300
C2469       C  0.12740309  0.04616181  0.28764173    -0.27700
C2470       C  0.11152925  0.03977425  0.26133732     0.18300
C2471       C  0.12324229  0.98123909  0.24897220     0.12300
C2472       C  0.15738780  0.99413021  0.30129686    -0.12100
H2473       H  0.15450925  0.03544168  0.31947550     0.12600
C2474       C  0.09477768  0.05470532  0.24691495    -0.22900
H2475       H  0.09866404  0.01364593  0.22910189     0.08200
C2476       C  0.10941636  0.96714787  0.26770285     0.04600
C2477       C  0.10899514  0.94575615  0.25677568    -0.20100
C2478       C  0.12220626  0.93805571  0.22769306    -0.12400
C2479       C  0.13506740  0.95251021  0.20736714     0.13300
C2480       C  0.13557217  0.97385955  0.21854445    -0.22800
C2481       C  0.09566441  0.97456138  0.30010768    -0.05900
H2482       H  0.09912663  0.93478090  0.27239617     0.14800
C2483       C  0.14816319  0.94606570  0.17341769    -0.16100
H2484       H  0.14581966  0.98480792  0.20362782     0.09100
H2485       H  0.08361337  0.04673108  0.22727278     0.07000
H2486       H  0.10224774  0.06785135  0.23103398     0.08200
H2487       H  0.08533137  0.06104258  0.27101738     0.07200
H2488       H  0.16651673  0.98746804  0.27708738     0.02100
H2489       H  0.14913889  0.98111387  0.31635082     0.02600
H2490       H  0.16876514  0.00150546  0.32128675     0.06100
H2491       H  0.08596600  0.96149933  0.31196232     0.05100
H2492       H  0.08475301  0.98711452  0.29014542    -0.00700
H2493       H  0.10572002  0.98098047  0.32317764     0.00800
H2494       H  0.14385922  0.95609793  0.14883651     0.04400
H2495       H  0.14554366  0.92942755  0.16475212     0.06400
H2496       H  0.16522182  0.94832278  0.17971930     0.07300
C2497       C  0.10426979  0.86466894  0.89315075    -0.22400
C2498       C  0.12228815  0.87027974  0.91386036     0.09600
C2499       C  0.14121332  0.87514499  0.89474547     0.10000
C2500       C  0.14157971  0.87483777  0.85506983    -0.17300
C2501       C  0.12341135  0.86981201  0.83359915    -0.27700
C2502       C  0.10446363  0.86440444  0.85327941     0.18300
C2503       C  0.12089409  0.87130162  0.95566681     0.12300
C2504       C  0.16092706  0.88108447  0.91625469    -0.12100
H2505       H  0.15623190  0.87899965  0.84089562     0.12600
C2506       C  0.08432604  0.85838706  0.83311984    -0.22900
H2507       H  0.08986631  0.86077102  0.90842406     0.08200
C2508       C  0.11161640  0.88875311  0.97432536     0.04600
C2509       C  0.10992446  0.88865398  0.01399255    -0.20100
C2510       C  0.11761207  0.87164307  0.03538273    -0.12400
C2511       C  0.12731845  0.85426998  0.01647708     0.13300
C2512       C  0.12887496  0.85445423  0.97683671    -0.22800
C2513       C  0.10363227  0.90748279  0.95232757    -0.05900
H2514       H  0.10242975  0.90185540  0.02841909     0.14800
C2515       C  0.13531802  0.83474711  0.03635322    -0.16100
H2516       H  0.13599199  0.84110998  0.96218483     0.09100
H2517       H  0.07842565  0.87196206  0.81635431     0.07000
H2518       H  0.07155260  0.85395085  0.85332132     0.08200
H2519       H  0.08724056  0.84457869  0.81430588     0.07200
H2520       H  0.16585404  0.86777591  0.93465614     0.02100
H2521       H  0.15776153  0.89522117  0.93413412     0.02600
H2522       H  0.17432079  0.88481653  0.89690436     0.06100
H2523       H  0.09713417  0.91994241  0.97133920     0.05100
H2524       H  0.09087337  0.90244972  0.93273496    -0.00700
H2525       H  0.11682108  0.91445807  0.93563683     0.00800
H2526       H  0.12699274  0.82061107  0.02510401     0.04400
H2527       H  0.13284854  0.83489590  0.06730042     0.06400
H2528       H  0.15255040  0.83292924  0.03087330     0.07300
C2529       C  0.10090006  0.88476430  0.39266355    -0.22400
C2530       C  0.11595919  0.87346588  0.41350249     0.09600
C2531       C  0.13155573  0.86154383  0.39439997     0.10000
C2532       C  0.13211834  0.86168369  0.35466949    -0.17300
C2533       C  0.11720472  0.87314626  0.33352922    -0.27700
C2534       C  0.10137986  0.88494749  0.35284326     0.18300
C2535       C  0.11451901  0.87353476  0.45535406     0.12300
C2536       C  0.14744657  0.84853309  0.41595952    -0.12100
H2537       H  0.14429575  0.85274636  0.33992616     0.12600
C2538       C  0.08536722  0.89865230  0.33293896    -0.22900
H2539       H  0.08885963  0.89376866  0.40764556     0.08200
C2540       C  0.12579690  0.88816056  0.47785459     0.04600
C2541       C  0.12391277  0.88725758  0.51757068    -0.20100
C2542       C  0.11070172  0.87229073  0.53494280    -0.12400
C2543       C  0.09967918  0.85745183  0.51215650     0.13300
C2544       C  0.10172287  0.85834017  0.47265886    -0.22800
C2545       C  0.13961451  0.90476061  0.45989328    -0.05900
H2546       H  0.13247187  0.89844939  0.53506562     0.14800
C2547       C  0.08634392  0.84009323  0.52919625    -0.16100
H2548       H  0.09337667  0.84703642  0.45504207     0.09100
H2549       H  0.08674297  0.91515531  0.34345666     0.07000
H2550       H  0.06916086  0.89279318  0.33920699     0.08200
H2551       H  0.08744079  0.89914322  0.30182845     0.07200
H2552       H  0.13906877  0.83654135  0.43334955     0.02100
H2553       H  0.15690097  0.85886146  0.43489758     0.02600
H2554       H  0.15854635  0.84012405  0.39660613     0.06100
H2555       H  0.14722753  0.91500408  0.48152659     0.05100
H2556       H  0.12990899  0.91492853  0.44114003    -0.00700
H2557       H  0.15230025  0.89714416  0.44280625     0.00800
H2558       H  0.07254671  0.84689440  0.54449255     0.04400
H2559       H  0.09604083  0.83060661  0.54900485     0.06400
H2560       H  0.08009236  0.82919365  0.50718172     0.07300
C2561       C  0.23022185  0.64202788  0.97708515    -0.22400
C2562       C  0.23646530  0.65750631  0.95098436     0.09600
C2563       C  0.22137747  0.67192911  0.93704293     0.10000
C2564       C  0.20003111  0.66967539  0.94778245    -0.17300
C2565       C  0.19358047  0.65321569  0.97182729    -0.27700
C2566       C  0.20894658  0.63969925  0.98766590     0.18300
C2567       C  0.25872204  0.65735697  0.93754089     0.12300
C2568       C  0.22771761  0.68913264  0.90989829    -0.12100
H2569       H  0.18814009  0.67978211  0.93513368     0.12600
C2570       C  0.20323466  0.62224129  0.01478502    -0.22900
H2571       H  0.24194066  0.63118206  0.98821520     0.08200
C2572       C  0.27503944  0.66614798  0.95964268     0.04600
C2573       C  0.29618456  0.66252816  0.94916858    -0.20100
C2574       C  0.30134579  0.65019602  0.91727805    -0.12400
C2575       C  0.28501210  0.64227456  0.89403429     0.13300
C2576       C  0.26382256  0.64605811  0.90438109    -0.22800
C2577       C  0.27010262  0.67869466  0.99495812    -0.05900
H2578       H  0.30879560  0.66837090  0.96715209     0.14800
C2579       C  0.28941206  0.62912266  0.85921614    -0.16100
H2580       H  0.25120495  0.63931055  0.88746705     0.09100
H2581       H  0.21217837  0.62435817  0.04157341     0.07000
H2582       H  0.20748409  0.60672613  0.00207493     0.08200
H2583       H  0.18613136  0.62208119  0.02206410     0.07200
H2584       H  0.23454382  0.68205373  0.88372429     0.02100
H2585       H  0.23972523  0.69949918  0.92336018     0.02600
H2586       H  0.21397649  0.69907011  0.90173547     0.06100
H2587       H  0.28472104  0.68453174  0.00889809     0.05100
H2588       H  0.26140588  0.66868303  0.01558093    -0.00700
H2589       H  0.26017939  0.69256330  0.98758831     0.00800
H2590       H  0.28229109  0.61320611  0.86271791     0.04400
H2591       H  0.30658440  0.62714686  0.85352768     0.06400
H2592       H  0.28224940  0.63684643  0.83411439     0.07300
C2593       C  0.96239533  0.64519750  0.85720086    -0.22400
C2594       C  0.97006857  0.63034782  0.88309828     0.09600
C2595       C  0.95622422  0.61494457  0.89802570     0.10000
C2596       C  0.93485565  0.61493735  0.88702952    -0.17300
C2597       C  0.92691835  0.63031438  0.86217864    -0.27700
C2598       C  0.94099494  0.64546170  0.84659979     0.18300
C2599       C  0.99242413  0.63201790  0.89553058     0.12300
C2600       C  0.96396509  0.59868851  0.92582728    -0.12100
H2601       H  0.92410857  0.60339759  0.89909912     0.12600
C2602       C  0.93371907  0.66175756  0.81836590    -0.22900
H2603       H  0.97317043  0.65694345  0.84587307     0.08200
C2604       C  0.00936882  0.62515206  0.87245132     0.04600
C2605       C  0.03028273  0.62791121  0.88502364    -0.20100
C2606       C  0.03473696  0.63761171  0.92009507    -0.12400
C2607       C  0.01748891  0.64434621  0.94334370     0.13300
C2608       C  0.99665232  0.64144166  0.93060646    -0.22800
C2609       C  0.00533587  0.61479598  0.83466621    -0.05900
H2610       H  0.04322249  0.62262421  0.86707232     0.14800
C2611       C  0.02056967  0.65430757  0.98187833    -0.16100
H2612       H  0.98346296  0.64671578  0.94800875     0.09100
H2613       H  0.94717242  0.67118234  0.80713188     0.07000
H2614       H  0.92250243  0.67298006  0.83194518     0.08200
H2615       H  0.92593282  0.65381331  0.79401641     0.07200
H2616       H  0.96984968  0.60662130  0.95184037     0.02100
H2617       H  0.97701028  0.58934951  0.91282865     0.02600
H2618       H  0.95117018  0.58760496  0.93427736     0.06100
H2619       H  0.02031072  0.60999764  0.82042222     0.05100
H2620       H  0.99692517  0.62594507  0.81571957    -0.00700
H2621       H  0.99546984  0.60045719  0.83872763     0.00800
H2622       H  0.00524880  0.65746920  0.99641684     0.04400
H2623       H  0.02881628  0.66970285  0.97898123     0.06400
H2624       H  0.02984337  0.64354724  0.00027740     0.07300
C2625       C  0.09650323  0.73070640  0.07274638    -0.22400
C2626       C  0.10996198  0.74572123  0.05665612     0.09600
C2627       C  0.12157095  0.74044804  0.02363597     0.10000
C2628       C  0.11905292  0.72025252  0.00703142    -0.17300
C2629       C  0.10496489  0.70528214  0.02251230    -0.27700
C2630       C  0.09381872  0.71066065  0.05645178     0.18300
C2631       C  0.11007086  0.76722897  0.07395200     0.12300
C2632       C  0.13644146  0.75618655  0.00593354    -0.12100
H2633       H  0.12801313  0.71620869  0.98175816     0.12600
C2634       C  0.07949991  0.69531686  0.07692249    -0.22900
H2635       H  0.08775619  0.73490463  0.09820793     0.08200
C2636       C  0.09340442  0.78141975  0.06679168     0.04600
C2637       C  0.09231924  0.80054560  0.08686726    -0.20100
C2638       C  0.10760575  0.80631664  0.11415984    -0.12400
C2639       C  0.12465226  0.79207100  0.12075634     0.13300
C2640       C  0.12548572  0.77265736  0.10082139    -0.22800
C2641       C  0.07668553  0.77637251  0.03771604    -0.05900
H2642       H  0.07942494  0.81122451  0.08044325     0.14800
C2643       C  0.14196493  0.79691259  0.14871250    -0.16100
H2644       H  0.13812764  0.76152111  0.10644455     0.09100
H2645       H  0.06550935  0.69155227  0.05921898     0.07000
H2646       H  0.07340689  0.70192780  0.10407168     0.08200
H2647       H  0.08835801  0.68067061  0.08378502     0.07200
H2648       H  0.14890878  0.76059499  0.02660182     0.02100
H2649       H  0.12755410  0.77058962  0.99767589     0.02600
H2650       H  0.14429648  0.74964811  0.98021093     0.06100
H2651       H  0.06497020  0.78936598  0.03492015     0.05100
H2652       H  0.06797416  0.76186799  0.04599821    -0.00700
H2653       H  0.08426034  0.77383619  0.00959799     0.00800
H2654       H  0.15331376  0.78358300  0.15132855     0.04400
H2655       H  0.13500964  0.79991132  0.17718969     0.06400
H2656       H  0.15110424  0.81090453  0.13918519     0.07300
C2657       C  0.22311388  0.66734743  0.44251605    -0.22400
C2658       C  0.23810564  0.65389465  0.45887839     0.09600
C2659       C  0.23157785  0.63951922  0.48723286     0.10000
C2660       C  0.20987847  0.63742443  0.49569641    -0.17300
C2661       C  0.19467564  0.64986446  0.47733080    -0.27700
C2662       C  0.20148396  0.66556883  0.45145731     0.18300
C2663       C  0.26006993  0.65359797  0.44339550     0.12300
C2664       C  0.24747600  0.62606169  0.50785416    -0.12100
H2665       H  0.20466752  0.62530642  0.51527928     0.12600
C2666       C  0.18624729  0.67983919  0.43096223    -0.22900
H2667       H  0.22817775  0.67859002  0.42119135     0.08200
C2668       C  0.26649045  0.63798471  0.41698888     0.04600
C2669       C  0.28791596  0.63654630  0.40634684    -0.20100
C2670       C  0.30298518  0.65074224  0.42055727    -0.12400
C2671       C  0.29621798  0.66742663  0.44466413     0.13300
C2672       C  0.27482190  0.66861313  0.45583034    -0.22800
C2673       C  0.25076848  0.62261459  0.40050859    -0.05900
H2674       H  0.29312081  0.62367108  0.38821312     0.14800
C2675       C  0.31130561  0.68353858  0.46079906    -0.16100
H2676       H  0.26978649  0.68086018  0.47546420     0.09100
H2677       H  0.18732448  0.67685199  0.39996926     0.07000
H2678       H  0.19045343  0.69658081  0.43666913     0.08200
H2679       H  0.16958259  0.67756912  0.43993065     0.07200
H2680       H  0.25898577  0.63640518  0.52270784     0.02100
H2681       H  0.25616928  0.61575867  0.48760511     0.02600
H2682       H  0.23974226  0.61578850  0.52929877     0.06100
H2683       H  0.25837200  0.61162366  0.37994876     0.05100
H2684       H  0.23816219  0.63143749  0.38543801    -0.00700
H2685       H  0.24343362  0.61302136  0.42329931     0.00800
H2686       H  0.30601267  0.69963710  0.45270486     0.04400
H2687       H  0.32776663  0.68152175  0.45045502     0.06400
H2688       H  0.31140300  0.68236633  0.49220769     0.07300
C2689       C  0.99988906  0.64678748  0.40357293    -0.22400
C2690       C  0.99739066  0.63267991  0.37330255     0.09600
C2691       C  0.01536445  0.62276304  0.35753257     0.10000
C2692       C  0.03540572  0.62651338  0.37358619    -0.17300
C2693       C  0.03807042  0.64027642  0.40483979    -0.27700
C2694       C  0.01985705  0.65085984  0.41948198     0.18300
C2695       C  0.97557275  0.62866220  0.35932289     0.12300
C2696       C  0.01338248  0.60835153  0.32367023    -0.12100
H2697       H  0.04905940  0.61852074  0.36157614     0.12600
C2698       C  0.02091955  0.66631979  0.45205927    -0.22900
H2699       H  0.98594638  0.65453454  0.41509614     0.08200
C2700       C  0.96270127  0.61278910  0.37549936     0.04600
C2701       C  0.94101407  0.61203815  0.36660328    -0.20100
C2702       C  0.93186303  0.62702095  0.34236813    -0.12400
C2703       C  0.94515816  0.64185079  0.32387470     0.13300
C2704       C  0.96679247  0.64260268  0.33290043    -0.22800
C2705       C  0.97163859  0.59733145  0.40361710    -0.05900
H2706       H  0.93090521  0.60064110  0.38070458     0.14800
C2707       C  0.93706055  0.65713651  0.29459350    -0.16100
H2708       H  0.97675905  0.65459559  0.32011514     0.09100
H2709       H  0.02703725  0.65832141  0.47775379     0.07000
H2710       H  0.00509999  0.67289820  0.45935199     0.08200
H2711       H  0.03125753  0.67983811  0.44436479     0.07200
H2712       H  0.00656091  0.61723759  0.29952026     0.02100
H2713       H  0.00287210  0.59484780  0.33054533     0.02600
H2714       H  0.02898866  0.60193468  0.31463928     0.06100
H2715       H  0.95940480  0.58609123  0.41386706     0.05100
H2716       H  0.97801628  0.60596746  0.42851960    -0.00700
H2717       H  0.98456304  0.58803859  0.39019205     0.00800
H2718       H  0.93889834  0.67358185  0.30513716     0.04400
H2719       H  0.92023194  0.65445363  0.28723549     0.06400
H2720       H  0.94638780  0.65527356  0.26802613     0.07300
C2721       C  0.10202947  0.62676683  0.74351376    -0.22400
C2722       C  0.11341460  0.64181600  0.72273318     0.09600
C2723       C  0.12562366  0.65709803  0.74189762     0.10000
C2724       C  0.12636272  0.65682789  0.78162364    -0.17300
C2725       C  0.11512114  0.64167522  0.80259984    -0.27700
C2726       C  0.10291914  0.62627814  0.78325306     0.18300
C2727       C  0.11202302  0.64156736  0.68087488     0.12300
C2728       C  0.13816836  0.67340717  0.72036766    -0.12100
H2729       H  0.13599528  0.66834777  0.79645167     0.12600
C2730       C  0.09155204  0.60846391  0.80307725    -0.22900
H2731       H  0.09272502  0.61503624  0.72852916     0.08200
C2732       C  0.12418163  0.62754899  0.65844172     0.04600
C2733       C  0.12236137  0.62823292  0.61874014    -0.20100
C2734       C  0.10849504  0.64250283  0.60116861    -0.12400
C2735       C  0.09657058  0.65678060  0.62395837     0.13300
C2736       C  0.09845634  0.65599881  0.66348135    -0.22800
C2737       C  0.13920611  0.61209781  0.67645029    -0.05900
H2738       H  0.13164536  0.61748542  0.60138302     0.14800
C2739       C  0.08243696  0.67350746  0.60704119    -0.16100
H2740       H  0.08939517  0.66683041  0.68107211     0.09100
H2741       H  0.09751149  0.59310112  0.79204846     0.07000
H2742       H  0.07431117  0.60956167  0.79736614     0.08200
H2743       H  0.09383162  0.60838456  0.83412977     0.07200
H2744       H  0.12734137  0.68339149  0.70335502     0.02100
H2745       H  0.14962906  0.66542589  0.70111984     0.02600
H2746       H  0.14717791  0.68393095  0.73971604     0.06100
H2747       H  0.14769318  0.60244027  0.65486168     0.05100
H2748       H  0.13030897  0.60121473  0.69529664    -0.00700
H2749       H  0.15116290  0.62079087  0.69341465     0.00800
H2750       H  0.06883558  0.66605925  0.59238022     0.04400
H2751       H  0.09161085  0.68331354  0.58675765     0.06400
H2752       H  0.07582211  0.68424610  0.62908105     0.07300
C2753       C  0.13510159  0.62904524  0.23957614    -0.22400
C2754       C  0.11869444  0.64044701  0.22287580     0.09600
C2755       C  0.10392835  0.65125027  0.24598639     0.10000
C2756       C  0.10624278  0.65075056  0.28564839    -0.17300
C2757       C  0.12303899  0.63969313  0.30264160    -0.27700
C2758       C  0.13746532  0.62835830  0.27903846     0.18300
C2759       C  0.11707374  0.64009647  0.18101150     0.12300
C2760       C  0.08581134  0.66327997  0.22871026    -0.12100
H2761       H  0.09499597  0.65917521  0.30340817     0.12600
C2762       C  0.15495638  0.61474001  0.29483554    -0.22900
H2763       H  0.14607897  0.62049492  0.22144104     0.08200
C2764       C  0.12883008  0.65411995  0.15815101     0.04600
C2765       C  0.12718243  0.65273515  0.11851243    -0.20100
C2766       C  0.11398268  0.63766522  0.10127669    -0.12400
C2767       C  0.10274967  0.62315659  0.12439627     0.13300
C2768       C  0.10449979  0.62457325  0.16398095    -0.22800
C2769       C  0.14287811  0.67067416  0.17567314    -0.05900
H2770       H  0.13565521  0.66396373  0.10095028     0.14800
C2771       C  0.08931440  0.60580135  0.10768088    -0.16100
H2772       H  0.09596387  0.61355095  0.18186595     0.09100
H2773       H  0.16698910  0.62471056  0.30909735     0.07000
H2774       H  0.16331127  0.60571913  0.27221129     0.08200
H2775       H  0.14826553  0.60311543  0.31514159     0.07200
H2776       H  0.07574959  0.65234517  0.21195981     0.02100
H2777       H  0.09204996  0.67581566  0.20976431     0.02600
H2778       H  0.07571672  0.67088656  0.25072097     0.06100
H2779       H  0.15083040  0.68048886  0.15379232     0.05100
H2780       H  0.15530719  0.66295789  0.19298160    -0.00700
H2781       H  0.13329466  0.68127743  0.19410700     0.00800
H2782       H  0.08332270  0.59488071  0.12985920     0.04400
H2783       H  0.09885288  0.59638428  0.08719699     0.06400
H2784       H  0.07531269  0.61255463  0.09322280     0.07300
C2785       C  0.12554732  0.73113882  0.56294964    -0.22400
C2786       C  0.11088579  0.74694980  0.55421881     0.09600
C2787       C  0.09645346  0.74355028  0.52427402     0.10000
C2788       C  0.09587784  0.72372860  0.50587723    -0.17300
C2789       C  0.11011093  0.70750514  0.51541396    -0.27700
C2790       C  0.12552187  0.71158144  0.54386369     0.18300
C2791       C  0.11113160  0.76697106  0.57669601     0.12300
C2792       C  0.08191921  0.76096130  0.51135048    -0.12100
H2793       H  0.08417419  0.72083386  0.48408433     0.12600
C2794       C  0.14143149  0.69514154  0.55581581    -0.22900
H2795       H  0.13686084  0.73402434  0.58541468     0.08200
C2796       C  0.09666055  0.77075123  0.60661331     0.04600
C2797       C  0.09689486  0.79036709  0.62565557    -0.20100
C2798       C  0.11159586  0.80622780  0.61623618    -0.12400
C2799       C  0.12663019  0.80198959  0.58693495     0.13300
C2800       C  0.12626960  0.78237510  0.56804274    -0.22800
C2801       C  0.08108898  0.75401246  0.61866329    -0.05900
H2802       H  0.08525805  0.79350316  0.64764647     0.14800
C2803       C  0.14246487  0.81793939  0.57252356    -0.16100
H2804       H  0.13749988  0.77933265  0.54531724     0.09100
H2805       H  0.15169224  0.70088779  0.57917825     0.07000
H2806       H  0.15192749  0.69105768  0.53157430     0.08200
H2807       H  0.13312765  0.68082461  0.56609226     0.07200
H2808       H  0.09147957  0.77472197  0.50196468     0.02100
H2809       H  0.07132079  0.76601525  0.53481254     0.02600
H2810       H  0.07188982  0.75582749  0.48722671     0.06100
H2811       H  0.07105164  0.75943553  0.64273273     0.05100
H2812       H  0.08978735  0.73965176  0.62774977    -0.00700
H2813       H  0.07049822  0.74980157  0.59482251     0.00800
H2814       H  0.15874633  0.81173128  0.57657363     0.04400
H2815       H  0.14149975  0.83348927  0.58647246     0.06400
H2816       H  0.13986225  0.82059704  0.54177004     0.07300
C2817       C  0.16347573  0.28088811  0.81415226    -0.22400
C2818       C  0.14881602  0.26582009  0.80171352     0.09600
C2819       C  0.13266182  0.27192210  0.77636302     0.10000
C2820       C  0.13032579  0.29334501  0.76692788    -0.17300
C2821       C  0.14390870  0.30872170  0.78194437    -0.27700
C2822       C  0.16120084  0.30231467  0.80468223     0.18300
C2823       C  0.14869138  0.24455138  0.81939025     0.12300
C2824       C  0.11742903  0.25591539  0.76037736    -0.12100
H2825       H  0.11700868  0.29829301  0.74979246     0.12600
C2826       C  0.17659506  0.31779128  0.82182912    -0.22900
H2827       H  0.17594333  0.27614379  0.83339127     0.08200
C2828       C  0.16262526  0.22829400  0.80790112     0.04600
C2829       C  0.15963091  0.20774343  0.82214148    -0.20100
C2830       C  0.14283254  0.20317701  0.84706794    -0.12400
C2831       C  0.12987558  0.21980516  0.86046643     0.13300
C2832       C  0.13313201  0.24031871  0.84681712    -0.22800
C2833       C  0.17975576  0.23237482  0.77904958    -0.05900
H2834       H  0.16928025  0.19488128  0.81128469     0.14800
C2835       C  0.11189041  0.21620306  0.88788504    -0.16100
H2836       H  0.12269208  0.25293975  0.85613856     0.09100
H2837       H  0.19290765  0.31383652  0.81230458     0.07000
H2838       H  0.17583952  0.31678037  0.85323449     0.08200
H2839       H  0.17335716  0.33435880  0.81376752     0.07200
H2840       H  0.10816462  0.24848263  0.78355715     0.02100
H2841       H  0.12637695  0.24349375  0.74479948     0.02600
H2842       H  0.10607533  0.26326977  0.74038330     0.06100
H2843       H  0.18898826  0.21784556  0.77259698     0.05100
H2844       H  0.19085089  0.24451115  0.79003495    -0.00700
H2845       H  0.17259786  0.23810631  0.75227356     0.00800
H2846       H  0.11412033  0.22632877  0.91332684     0.04400
H2847       H  0.11090881  0.19957766  0.89760112     0.06400
H2848       H  0.09667239  0.22044919  0.87419887     0.07300
C2849       C  0.11948996  0.49263679  0.89445762    -0.22400
C2850       C  0.12634516  0.50902941  0.87082323     0.09600
C2851       C  0.13574894  0.50406770  0.83558797     0.10000
C2852       C  0.13777248  0.48282187  0.82447885    -0.17300
C2853       C  0.13081956  0.46612594  0.84781351    -0.27700
C2854       C  0.12158070  0.47127027  0.88357999     0.18300
C2855       C  0.12449017  0.53130865  0.88406619     0.12300
C2856       C  0.14389436  0.52123454  0.80983440    -0.12100
H2857       H  0.14482955  0.47931139  0.79712189     0.12600
C2858       C  0.11411784  0.45456904  0.91088950    -0.22900
H2859       H  0.11252981  0.49663576  0.92169932     0.08200
C2860       C  0.10703860  0.54414658  0.87446516     0.04600
C2861       C  0.10710450  0.56568747  0.88461787    -0.20100
C2862       C  0.12433309  0.57475597  0.90390872    -0.12400
C2863       C  0.14123996  0.56144990  0.91544402     0.13300
C2864       C  0.14105415  0.53994440  0.90531712    -0.22800
C2865       C  0.08851743  0.53514964  0.85305933    -0.05900
H2866       H  0.09401062  0.57564927  0.87609342     0.14800
C2867       C  0.15941370  0.56960789  0.93894665    -0.16100
H2868       H  0.15420386  0.52986454  0.91316724     0.09100
H2869       H  0.10816444  0.46152968  0.93785584     0.07000
H2870       H  0.12738161  0.44376560  0.91794936     0.08200
H2871       H  0.10090811  0.44554476  0.89811373     0.07200
H2872       H  0.15633263  0.53047428  0.82461144     0.02100
H2873       H  0.13076896  0.53198316  0.80186589     0.02600
H2874       H  0.15088636  0.51466997  0.78335173     0.06100
H2875       H  0.07614895  0.54727936  0.84788056     0.05100
H2876       H  0.08127530  0.52212545  0.86966089    -0.00700
H2877       H  0.09386821  0.52888965  0.82519907     0.00800
H2878       H  0.16999668  0.55660840  0.94825863     0.04400
H2879       H  0.15321773  0.57764562  0.96474267     0.06400
H2880       H  0.16923134  0.58074852  0.92223026     0.07300
C2881       C  0.16006865  0.28050666  0.32156460    -0.22400
C2882       C  0.14450998  0.26607582  0.31009366     0.09600
C2883       C  0.12864055  0.27274030  0.28454513     0.10000
C2884       C  0.12755585  0.29411015  0.27411554    -0.17300
C2885       C  0.14225210  0.30886058  0.28777775    -0.27700
C2886       C  0.15928727  0.30178316  0.31042214     0.18300
C2887       C  0.14384079  0.24474388  0.32774233     0.12300
C2888       C  0.11260289  0.25744668  0.26878133    -0.12100
H2889       H  0.11446463  0.29958263  0.25692341     0.12600
C2890       C  0.17609733  0.31641128  0.32558599    -0.22900
H2891       H  0.17228677  0.27542764  0.34102017     0.08200
C2892       C  0.15913473  0.22900780  0.31981129     0.04600
C2893       C  0.15609648  0.20842794  0.33391646    -0.20100
C2894       C  0.13799579  0.20325500  0.35521182    -0.12400
C2895       C  0.12366379  0.21943856  0.36561317     0.13300
C2896       C  0.12689403  0.23999697  0.35211765    -0.22800
C2897       C  0.17788209  0.23351579  0.29458395    -0.05900
H2898       H  0.16690059  0.19593294  0.32546502     0.14800
C2899       C  0.10439518  0.21529396  0.38981215    -0.16100
H2900       H  0.11553408  0.25224986  0.35929654     0.09100
H2901       H  0.19191013  0.31074155  0.31613524     0.07000
H2902       H  0.17556297  0.31643773  0.35705777     0.08200
H2903       H  0.17434314  0.33291585  0.31583824     0.07200
H2904       H  0.10261032  0.25092925  0.29185561     0.02100
H2905       H  0.12091490  0.24430408  0.25401223     0.02600
H2906       H  0.10191764  0.26518409  0.24807642     0.06100
H2907       H  0.18777457  0.21920573  0.29002290     0.05100
H2908       H  0.18803352  0.24579529  0.30771077    -0.00700
H2909       H  0.17235156  0.23911967  0.26651125     0.00800
H2910       H  0.10469752  0.22580682  0.41507504     0.04400
H2911       H  0.10365836  0.19876336  0.40011233     0.06400
H2912       H  0.08985919  0.21863411  0.37325821     0.07300
C2913       C  0.13896312  0.53882314  0.41424744    -0.22400
C2914       C  0.12417116  0.53105225  0.38826174     0.09600
C2915       C  0.10823272  0.54453710  0.37429651     0.10000
C2916       C  0.10833703  0.56598390  0.38464998    -0.17300
C2917       C  0.12416520  0.57419590  0.40834752    -0.27700
C2918       C  0.13916747  0.56025857  0.42457155     0.18300
C2919       C  0.12656597  0.50913339  0.37407325     0.12300
C2920       C  0.09162297  0.53641368  0.34743300    -0.12100
H2921       H  0.09672329  0.57659203  0.37251705     0.12600
C2922       C  0.15528600  0.56779512  0.45300334    -0.22900
H2923       H  0.15084611  0.52818704  0.42544250     0.08200
C2924       C  0.14063573  0.50435128  0.34415367     0.04600
C2925       C  0.14228700  0.48345979  0.33107864    -0.20100
C2926       C  0.13007759  0.46707280  0.34697057    -0.12400
C2927       C  0.11592851  0.47207813  0.37735501     0.13300
C2928       C  0.11450178  0.49304282  0.39044088    -0.22800
C2929       C  0.15370437  0.52140825  0.32566923    -0.05900
H2930       H  0.15307271  0.48003843  0.30789069     0.14800
C2931       C  0.10216861  0.45574681  0.39647354    -0.16100
H2932       H  0.10376654  0.49701492  0.41345410     0.09100
H2933       H  0.16456262  0.55445094  0.46483913     0.07000
H2934       H  0.14712822  0.57589444  0.47692722     0.08200
H2935       H  0.16668646  0.57878518  0.43950182     0.07200
H2936       H  0.08238828  0.52365156  0.36130678     0.02100
H2937       H  0.09929525  0.53005356  0.32141056     0.02600
H2938       H  0.08042485  0.54906808  0.33893434     0.06100
H2939       H  0.16374368  0.51505148  0.30234631     0.05100
H2940       H  0.16426647  0.52883253  0.34696708    -0.00700
H2941       H  0.14311602  0.53366463  0.31361790     0.00800
H2942       H  0.09255584  0.46267500  0.41985668     0.04400
H2943       H  0.11218990  0.44316150  0.40896658     0.06400
H2944       H  0.09093441  0.44883972  0.37572494     0.07300
C2945       C  0.10516116  0.38126968  0.51565556    -0.22400
C2946       C  0.12190440  0.39100144  0.53483830     0.09600
C2947       C  0.13890096  0.39968512  0.51387536     0.10000
C2948       C  0.13889484  0.39812707  0.47407354    -0.17300
C2949       C  0.12253240  0.38765762  0.45488391    -0.27700
C2950       C  0.10510804  0.37965980  0.47594726     0.18300
C2951       C  0.12173974  0.39116073  0.57694200     0.12300
C2952       C  0.15744681  0.40981909  0.53357245    -0.12100
H2953       H  0.15216049  0.40429986  0.45797013     0.12600
C2954       C  0.08595441  0.36976449  0.45762505    -0.22900
H2955       H  0.09203468  0.37483995  0.53183149     0.08200
C2956       C  0.11459714  0.40880579  0.59779000     0.04600
C2957       C  0.11630517  0.40872690  0.63747066    -0.20100
C2958       C  0.12472932  0.39127655  0.65719158    -0.12400
C2959       C  0.13057528  0.37299175  0.63605167     0.13300
C2960       C  0.12907924  0.37329384  0.59623656    -0.22800
C2961       C  0.10505721  0.42766486  0.57818799    -0.05900
H2962       H  0.11121194  0.42260001  0.65312881     0.14800
C2963       C  0.13899086  0.35329431  0.65464957    -0.16100
H2964       H  0.13407421  0.35963184  0.57986134     0.09100
H2965       H  0.07146493  0.37826547  0.46708744     0.07000
H2966       H  0.08469869  0.35296142  0.46631925     0.08200
H2967       H  0.08628971  0.37051051  0.42627403     0.07200
H2968       H  0.16511572  0.39815364  0.55254536     0.02100
H2969       H  0.15208331  0.42354949  0.55069802     0.02600
H2970       H  0.16951001  0.41550430  0.51300342     0.06100
H2971       H  0.10009162  0.44006032  0.59875338     0.05100
H2972       H  0.09088524  0.42264633  0.56196859    -0.00700
H2973       H  0.11668043  0.43478555  0.55836357     0.00800
H2974       H  0.12683280  0.34663702  0.67404095     0.04400
H2975       H  0.15363494  0.35701009  0.67064659     0.06400
H2976       H  0.14298906  0.34084683  0.63351965     0.07300
C2977       C  0.15366315  0.39901059  0.09430086    -0.22400
C2978       C  0.14112262  0.38340320  0.07754407     0.09600
C2979       C  0.12909917  0.36973976  0.10072402     0.10000
C2980       C  0.12900186  0.37281098  0.14028683    -0.17300
C2981       C  0.14064844  0.38928009  0.15706119    -0.27700
C2982       C  0.15371880  0.40210536  0.13368009     0.18300
C2983       C  0.14024832  0.38252069  0.03552782     0.12300
C2984       C  0.11619885  0.35216618  0.08361944    -0.12100
H2985       H  0.11941068  0.36263759  0.15807078     0.12600
C2986       C  0.16827340  0.41874020  0.14982587    -0.22900
H2987       H  0.16319300  0.40910475  0.07624358     0.08200
C2988       C  0.12718152  0.39648000  0.01499738     0.04600
C2989       C  0.12748962  0.39592972  0.97517334    -0.20100
C2990       C  0.14055723  0.38170402  0.95534157    -0.12400
C2991       C  0.15418639  0.36817696  0.97606956     0.13300
C2992       C  0.15366484  0.36862608  0.01589985    -0.22800
C2993       C  0.11265572  0.41172105  0.03522027    -0.05900
H2994       H  0.11696332  0.40618637  0.95947363     0.14800
C2995       C  0.16998781  0.35359525  0.95729141    -0.16100
H2996       H  0.16407554  0.35832061  0.03178515     0.09100
H2997       H  0.15893248  0.43184246  0.16249329     0.07000
H2998       H  0.17860347  0.42575911  0.12763160     0.08200
H2999       H  0.17870216  0.41160067  0.17160973     0.07200
H3000       H  0.12677388  0.34116523  0.06787399     0.02100
H3001       H  0.10434459  0.35882136  0.06379471     0.02600
H3002       H  0.10764212  0.34298346  0.10566373     0.06100
H3003       H  0.10323059  0.42126303  0.01498782     0.05100
H3004       H  0.12208036  0.42274346  0.05293722    -0.00700
H3005       H  0.10149740  0.40285871  0.05365687     0.00800
H3006       H  0.18605529  0.35695508  0.96847717     0.04400
H3007       H  0.17085126  0.35556025  0.92613090     0.06400
H3008       H  0.16587195  0.33693147  0.96374275     0.07300
C3009       C  0.33235595  0.23176207  0.58890995    -0.22400
C3010       C  0.34238938  0.24631004  0.56504591     0.09600
C3011       C  0.35129957  0.23924486  0.53037879     0.10000
C3012       C  0.35154277  0.21749809  0.52193544    -0.17300
C3013       C  0.34303078  0.20278788  0.54738252    -0.27700
C3014       C  0.33251525  0.21008828  0.58046594     0.18300
C3015       C  0.34585742  0.26819061  0.57910845     0.12300
C3016       C  0.36127164  0.25457577  0.50305546    -0.12100
H3017       H  0.35978266  0.21185777  0.49684235     0.12600
C3018       C  0.32239642  0.19526658  0.60858578    -0.22900
H3019       H  0.32539791  0.23719997  0.61535924     0.08200
C3020       C  0.32980238  0.28371617  0.57886951     0.04600
C3021       C  0.33467177  0.30452661  0.59015266    -0.20100
C3022       C  0.35527785  0.31007975  0.60130830    -0.12400
C3023       C  0.37088921  0.29410276  0.60403250     0.13300
C3024       C  0.36597014  0.27340715  0.59291030    -0.22800
C3025       C  0.30790180  0.27854194  0.56499749    -0.05900
H3026       H  0.32277749  0.31679384  0.58756854     0.14800
C3027       C  0.39299011  0.29843278  0.61806011    -0.16100
H3028       H  0.37811493  0.26130037  0.59411860     0.09100
H3029       H  0.30554076  0.19973574  0.61276774     0.07000
H3030       H  0.33072056  0.19641986  0.63619082     0.08200
H3031       H  0.32274762  0.17857002  0.59903683     0.07200
H3032       H  0.37489369  0.26263899  0.51660046     0.02100
H3033       H  0.34938795  0.26656759  0.49448897     0.02600
H3034       H  0.36714023  0.24649178  0.47705339     0.06100
H3035       H  0.29734605  0.29258387  0.56587138     0.05100
H3036       H  0.30077481  0.26610432  0.58311840    -0.00700
H3037       H  0.30874014  0.27276188  0.53526650     0.00800
H3038       H  0.39651193  0.28787445  0.64232925     0.04400
H3039       H  0.39510613  0.31491933  0.62807528     0.06400
H3040       H  0.40459172  0.29526128  0.59498805     0.07300
C3041       C  0.49949562  0.36115322  0.46895397    -0.22400
C3042       C  0.49549041  0.37666813  0.49636853     0.09600
C3043       C  0.51235698  0.38887845  0.51049040     0.10000
C3044       C  0.53283549  0.38586269  0.49561115    -0.17300
C3045       C  0.53698136  0.37072179  0.46705053    -0.27700
C3046       C  0.51992181  0.35786418  0.45416771     0.18300
C3047       C  0.47336670  0.37955466  0.50970513     0.12300
C3048       C  0.50874175  0.40496571  0.54141721    -0.12100
H3049       H  0.54562117  0.39560404  0.50622865     0.12600
C3050       C  0.52272741  0.34056172  0.42502056    -0.22900
H3051       H  0.48639297  0.35164353  0.45883278     0.08200
C3052       C  0.45959909  0.39412773  0.49219826     0.04600
C3053       C  0.43818514  0.39477207  0.50314455    -0.20100
C3054       C  0.43007211  0.38055847  0.52998626    -0.12400
C3055       C  0.44397456  0.36618171  0.54793643     0.13300
C3056       C  0.46551913  0.36603990  0.53783076    -0.22800
C3057       C  0.46726687  0.40824428  0.46068530    -0.05900
H3058       H  0.42745951  0.40555314  0.48904981     0.14800
C3059       C  0.43619392  0.35097999  0.57773827    -0.16100
H3060       H  0.47618637  0.35482302  0.55093927     0.09100
H3061       H  0.52790079  0.34739155  0.39756018     0.07000
H3062       H  0.50773720  0.33189226  0.41968785     0.08200
H3063       H  0.53450837  0.32885389  0.43515271     0.07200
H3064       H  0.50223495  0.39703104  0.56696142     0.02100
H3065       H  0.49734930  0.41715506  0.53181651     0.02600
H3066       H  0.52366439  0.41304665  0.54954112     0.06100
H3067       H  0.45438413  0.41847526  0.44972871     0.05100
H3068       H  0.47330972  0.39845045  0.43680160    -0.00700
H3069       H  0.48017368  0.41861167  0.47102927     0.00800
H3070       H  0.42486022  0.33956914  0.56521019     0.04400
H3071       H  0.42829878  0.35985243  0.60104550     0.06400
H3072       H  0.44939930  0.34172128  0.59014042     0.07300
C3073       C  0.36253661  0.50711698  0.54849535    -0.22400
C3074       C  0.37089925  0.51013164  0.51212173     0.09600
C3075       C  0.37705689  0.49242924  0.49037164     0.10000
C3076       C  0.37462984  0.47200474  0.50557043    -0.17300
C3077       C  0.36609961  0.46878246  0.54214068    -0.27700
C3078       C  0.36006033  0.48680715  0.56390396     0.18300
C3079       C  0.37291008  0.53214502  0.49790869     0.12300
C3080       C  0.38619585  0.49514470  0.45119549    -0.12100
H3081       H  0.37935133  0.45847777  0.48861001     0.12600
C3082       C  0.35149113  0.48510110  0.60376732    -0.22900
H3083       H  0.35792634  0.52087429  0.56498734     0.08200
C3084       C  0.35571660  0.54247647  0.48058071     0.04600
C3085       C  0.35718045  0.56413995  0.47255408    -0.20100
C3086       C  0.37536283  0.57593089  0.48177158    -0.12400
C3087       C  0.39295758  0.56531107  0.49775836     0.13300
C3088       C  0.39147775  0.54352798  0.50555281    -0.22800
C3089       C  0.33555948  0.53077668  0.47165485    -0.05900
H3090       H  0.34370324  0.57209472  0.46007422     0.14800
C3091       C  0.41283206  0.57695869  0.50872051    -0.16100
H3092       H  0.40456517  0.53546882  0.51907613     0.09100
H3093       H  0.34877537  0.50087298  0.61683837     0.07000
H3094       H  0.36295777  0.47651617  0.62188014     0.08200
H3095       H  0.33604008  0.47676557  0.60361841     0.07200
H3096       H  0.40083555  0.50480849  0.45269717     0.02100
H3097       H  0.37454901  0.50322765  0.43274146     0.02600
H3098       H  0.39026165  0.47971359  0.43794178     0.06100
H3099       H  0.32364055  0.54122094  0.45816469     0.05100
H3100       H  0.32853157  0.52438287  0.49813727    -0.00700
H3101       H  0.33898193  0.51752524  0.45187202     0.00800
H3102       H  0.40896231  0.58974946  0.52925296     0.04400
H3103       H  0.42039300  0.58382740  0.48311321     0.06400
H3104       H  0.42456812  0.56631869  0.52222413     0.07300
C3105       C  0.23241155  0.37998079  0.73123496    -0.22400
C3106       C  0.23872942  0.39533278  0.70486722     0.09600
C3107       C  0.22469071  0.41191783  0.69608333     0.10000
C3108       C  0.20461744  0.41266432  0.71333952    -0.17300
C3109       C  0.19782645  0.39711579  0.73925326    -0.27700
C3110       C  0.21213232  0.38052148  0.74833937     0.18300
C3111       C  0.26030395  0.39442656  0.68741794     0.12300
C3112       C  0.23095409  0.42896451  0.66847122    -0.12100
H3113       H  0.19394468  0.42534353  0.70564051     0.12600
C3114       C  0.20638038  0.36340156  0.77609418    -0.22900
H3115       H  0.24337453  0.36740453  0.73819244     0.08200
C3116       C  0.27806926  0.40262445  0.70655387     0.04600
C3117       C  0.29752049  0.40420255  0.68733609    -0.20100
C3118       C  0.29993712  0.39742710  0.64951013    -0.12400
C3119       C  0.28236323  0.38831277  0.63081043     0.13300
C3120       C  0.26274411  0.38704469  0.64997848    -0.22800
C3121       C  0.27644565  0.40997283  0.74713901    -0.05900
H3122       H  0.31109686  0.41062883  0.70216067     0.14800
C3123       C  0.28342576  0.38057872  0.59042417    -0.16100
H3124       H  0.24908375  0.38074685  0.63526143     0.09100
H3125       H  0.21994044  0.35268077  0.78167559     0.07000
H3126       H  0.19338151  0.35360495  0.76440929     0.08200
H3127       H  0.20142833  0.37053668  0.80354127     0.07200
H3128       H  0.23423549  0.42188569  0.64021507     0.02100
H3129       H  0.24537984  0.43716608  0.67874920     0.02600
H3130       H  0.21825480  0.44094855  0.66504488     0.06100
H3131       H  0.29182405  0.41601176  0.75783988     0.05100
H3132       H  0.27152712  0.39659616  0.76545384    -0.00700
H3133       H  0.26458226  0.42286764  0.74952636     0.00800
H3134       H  0.27983991  0.36340889  0.58954539     0.04400
H3135       H  0.29909019  0.38314244  0.57700572     0.06400
H3136       H  0.27150227  0.38911757  0.57320614     0.07300
C3137       C  0.33304696  0.23043164  0.10027833    -0.22400
C3138       C  0.34078709  0.24553553  0.07489425     0.09600
C3139       C  0.34763836  0.23911460  0.03840789     0.10000
C3140       C  0.34829988  0.21746070  0.02929808    -0.17300
C3141       C  0.34216354  0.20223623  0.05589502    -0.27700
C3142       C  0.33350187  0.20885278  0.09111910     0.18300
C3143       C  0.34422469  0.26745740  0.08858802     0.12300
C3144       C  0.35513391  0.25508526  0.00979019    -0.12100
H3145       H  0.35507903  0.21236088  0.00250096     0.12600
C3146       C  0.32549332  0.19342803  0.12034354    -0.22900
H3147       H  0.32756227  0.23541232  0.12808454     0.08200
C3148       C  0.32836073  0.28311343  0.08683519     0.04600
C3149       C  0.33346854  0.30415336  0.09615593    -0.20100
C3150       C  0.35414184  0.30977344  0.10679602    -0.12400
C3151       C  0.36951470  0.29369478  0.11137764     0.13300
C3152       C  0.36434954  0.27276887  0.10217946    -0.22800
C3153       C  0.30639480  0.27773269  0.07357978    -0.05900
H3154       H  0.32173148  0.31646303  0.09231960     0.14800
C3155       C  0.39162305  0.29813902  0.12525783    -0.16100
H3156       H  0.37635700  0.26057510  0.10440779     0.09100
H3157       H  0.30887135  0.19739562  0.12790691     0.07000
H3158       H  0.33538649  0.19445794  0.14624186     0.08200
H3159       H  0.32563786  0.17687397  0.10999380     0.07200
H3160       H  0.36902432  0.26379750  0.02099969     0.02100
H3161       H  0.34220477  0.26647764  0.00380286     0.02600
H3162       H  0.35985933  0.24745763  0.98263554     0.06100
H3163       H  0.29592880  0.29184487  0.07340954     0.05100
H3164       H  0.29928632  0.26579197  0.09278608    -0.00700
H3165       H  0.30708317  0.27119261  0.04435226     0.00800
H3166       H  0.39488210  0.28831916  0.15062025     0.04400
H3167       H  0.39394929  0.31487767  0.13362071     0.06400
H3168       H  0.40327010  0.29406856  0.10271393     0.07300
C3169       C  0.49821969  0.36768894  0.96388988    -0.22400
C3170       C  0.49592322  0.37832283  0.99850436     0.09600
C3171       C  0.51394784  0.38627541  0.01700743     0.10000
C3172       C  0.53398116  0.38359173  0.00015618    -0.17300
C3173       C  0.53651511  0.37303281  0.96510863    -0.27700
C3174       C  0.51816322  0.36494456  0.94678976     0.18300
C3175       C  0.47427135  0.38097579  0.01422594     0.12300
C3176       C  0.51197363  0.39773852  0.05433518    -0.12100
H3177       H  0.54774162  0.38983921  0.01460633     0.12600
C3178       C  0.51906753  0.35379145  0.90894145    -0.22900
H3179       H  0.48416967  0.36164461  0.95000872     0.08200
C3180       C  0.46063870  0.39693706  0.00083635     0.04600
C3181       C  0.43923492  0.39682605  0.01178676    -0.20100
C3182       C  0.43113696  0.38096557  0.03555348    -0.12400
C3183       C  0.44525689  0.36594161  0.05129811     0.13300
C3184       C  0.46666277  0.36612541  0.04027761    -0.22800
C3185       C  0.46861905  0.41375636  0.97426231    -0.05900
H3186       H  0.42855291  0.40848793  0.00002652     0.14800
C3187       C  0.43798024  0.34980571  0.07992809    -0.16100
H3188       H  0.47737467  0.35416059  0.05093562     0.09100
H3189       H  0.50306343  0.34933063  0.89870696     0.07000
H3190       H  0.52840528  0.33899495  0.91134763     0.08200
H3191       H  0.52624953  0.36433361  0.88732489     0.07200
H3192       H  0.50493069  0.38706700  0.07588500     0.02100
H3193       H  0.50164490  0.41180933  0.05100496     0.02600
H3194       H  0.52760374  0.40314685  0.06493100     0.06100
H3195       H  0.45596050  0.42517471  0.96674678     0.05100
H3196       H  0.47456392  0.40639376  0.94766588    -0.00700
H3197       H  0.48168853  0.42264812  0.98794012     0.00800
H3198       H  0.42703034  0.33828744  0.06667739     0.04400
H3199       H  0.42990741  0.35788800  0.10396440     0.06400
H3200       H  0.45149261  0.34068764  0.09158651     0.07300
C3201       C  0.38838126  0.54406826  0.01491097    -0.22400
C3202       C  0.37216131  0.53146036  0.00013586     0.09600
C3203       C  0.35691119  0.54058094  0.97614478     0.10000
C3204       C  0.35792186  0.56228986  0.96820364    -0.17300
C3205       C  0.37369146  0.57525584  0.98403273    -0.27700
C3206       C  0.38928572  0.56587797  0.00760677     0.18300
C3207       C  0.37007997  0.50934306  0.01348884     0.12300
C3208       C  0.33926521  0.52746954  0.95972632    -0.12100
H3209       H  0.34590940  0.56934114  0.95036728     0.12600
C3210       C  0.40627104  0.57822625  0.02778714    -0.22900
H3211       H  0.39988378  0.53699135  0.03378381     0.08200
C3212       C  0.38093573  0.49244665  0.99607140     0.04600
C3213       C  0.37811007  0.47182565  0.00997748    -0.20100
C3214       C  0.36481527  0.46765063  0.04133495    -0.12400
C3215       C  0.35415949  0.48494592  0.05902702     0.13300
C3216       C  0.35691825  0.50542955  0.04464656    -0.22800
C3217       C  0.39552285  0.49624416  0.96291945    -0.05900
H3218       H  0.38648999  0.45893258  0.99627745     0.14800
C3219       C  0.34006199  0.48238430  0.09337062    -0.16100
H3220       H  0.34879320  0.51864056  0.05791259     0.09100
H3221       H  0.42209021  0.57237199  0.01876429     0.07000
H3222       H  0.40459115  0.57598109  0.05888168     0.08200
H3223       H  0.40566746  0.59533660  0.02237549     0.07200
H3224       H  0.32951112  0.52068385  0.98293705     0.02100
H3225       H  0.34601057  0.51442264  0.94235879     0.02600
H3226       H  0.32871607  0.53701219  0.94135843     0.06100
H3227       H  0.40280235  0.48132916  0.95246994     0.05100
H3228       H  0.40845335  0.50710653  0.97151824    -0.00700
H3229       H  0.38654850  0.50345617  0.93924923     0.00800
H3230       H  0.34923859  0.47552448  0.11714116     0.04400
H3231       H  0.32637365  0.47211321  0.08636279     0.06400
H3232       H  0.33356348  0.49774036  0.10340354     0.07300
C3233       C  0.38295715  0.37929142  0.86962329    -0.22400
C3234       C  0.36637993  0.38988130  0.85160084     0.09600
C3235       C  0.34994663  0.39898938  0.87354844     0.10000
C3236       C  0.35024362  0.39677023  0.91322557    -0.17300
C3237       C  0.36654482  0.38556434  0.93117384    -0.27700
C3238       C  0.38340493  0.37720829  0.90913256     0.18300
C3239       C  0.36659246  0.39089746  0.80963204     0.12300
C3240       C  0.33230070  0.41121869  0.85515062    -0.12100
H3241       H  0.33756085  0.40347541  0.93022465     0.12600
C3242       C  0.40233297  0.36674868  0.92713576    -0.22900
H3243       H  0.39561268  0.37257299  0.85255926     0.08200
C3244       C  0.38098287  0.40391239  0.78988279     0.04600
C3245       C  0.38087371  0.40388631  0.75010790    -0.20100
C3246       C  0.36648197  0.39142892  0.72953522    -0.12400
C3247       C  0.35172081  0.37869914  0.74956124     0.13300
C3248       C  0.35240776  0.37823078  0.78930666    -0.22800
C3249       C  0.39598791  0.41830455  0.81074232    -0.05900
H3250       H  0.39181413  0.41401992  0.73491066     0.14800
C3251       C  0.33413685  0.36643105  0.73076415    -0.16100
H3252       H  0.34132338  0.36833652  0.80470140     0.09100
H3253       H  0.41462524  0.36255546  0.90578032     0.07000
H3254       H  0.39752206  0.35194404  0.94151658     0.08200
H3255       H  0.40963378  0.37767788  0.94802001     0.07200
H3256       H  0.32326834  0.40078122  0.83573840     0.02100
H3257       H  0.33900967  0.42461159  0.83877148     0.02600
H3258       H  0.32106047  0.41773516  0.87649385     0.06100
H3259       H  0.40566304  0.42793997  0.79091734     0.05100
H3260       H  0.40697473  0.40886413  0.82837656    -0.00700
H3261       H  0.38685687  0.42925400  0.82927597     0.00800
H3262       H  0.33629092  0.34930145  0.73626042     0.04400
H3263       H  0.33307608  0.36880917  0.69983774     0.06400
H3264       H  0.31868312  0.37148797  0.74293176     0.07300
C3265       C  0.34974961  0.40523068  0.37285137    -0.22400
C3266       C  0.36183270  0.39122485  0.35069853     0.09600
C3267       C  0.37345941  0.37505932  0.36833299     0.10000
C3268       C  0.37309422  0.37344177  0.40784671    -0.17300
C3269       C  0.36109768  0.38738456  0.43050432    -0.27700
C3270       C  0.34889284  0.40332364  0.41260537     0.18300
C3271       C  0.36208079  0.39322410  0.30891138     0.12300
C3272       C  0.38617086  0.35938202  0.34534291    -0.12100
H3273       H  0.38249024  0.36122122  0.42118771     0.12600
C3274       C  0.33406270  0.41789420  0.43378265    -0.22900
H3275       H  0.34055621  0.41741277  0.35894908     0.08200
C3276       C  0.34666921  0.38321377  0.28630563     0.04600
C3277       C  0.34902797  0.38324752  0.24674409    -0.20100
C3278       C  0.36627987  0.39333069  0.22928607    -0.12400
C3279       C  0.38166881  0.40348966  0.25206050     0.13300
C3280       C  0.37930868  0.40333128  0.29161990    -0.22800
C3281       C  0.32773240  0.37258299  0.30395918    -0.05900
H3282       H  0.33694958  0.37598202  0.22926834     0.14800
C3283       C  0.40104457  0.41408984  0.23582329    -0.16100
H3284       H  0.39127853  0.41070122  0.30921133     0.09100
H3285       H  0.31799482  0.41675733  0.42125323     0.07000
H3286       H  0.33971112  0.43444033  0.43118250     0.08200
H3287       H  0.33232467  0.41399440  0.46416283     0.07200
H3288       H  0.39855391  0.36775509  0.32879354     0.02100
H3289       H  0.37557808  0.35076961  0.32556479     0.02600
H3290       H  0.39413574  0.34755341  0.36360644     0.06100
H3291       H  0.31717023  0.36556948  0.28218551     0.05100
H3292       H  0.31841562  0.38432404  0.32051068    -0.00700
H3293       H  0.33302601  0.35975487  0.32311589     0.00800
H3294       H  0.40059470  0.43123601  0.24257942     0.04400
H3295       H  0.40253080  0.41212161  0.20470678     0.06400
H3296       H  0.41545754  0.40710063  0.24866897     0.07300
C3297       C  0.22761638  0.37775298  0.20980050    -0.22400
C3298       C  0.24175378  0.39459470  0.21482283     0.09600
C3299       C  0.23621049  0.41100809  0.24040477     0.10000
C3300       C  0.21620504  0.41078546  0.25830910    -0.17300
C3301       C  0.20172396  0.39423230  0.25234944    -0.27700
C3302       C  0.20796792  0.37708410  0.22869430     0.18300
C3303       C  0.26177200  0.39501542  0.19186288     0.12300
C3304       C  0.25137022  0.42874071  0.24909970    -0.12100
H3305       H  0.21160771  0.42392487  0.27634324     0.12600
C3306       C  0.19365398  0.35846500  0.22135944    -0.22900
H3307       H  0.23170377  0.36530820  0.18990137     0.08200
C3308       C  0.27759110  0.37929435  0.19543242     0.04600
C3309       C  0.29598404  0.38042788  0.17286075    -0.20100
C3310       C  0.29944926  0.39722241  0.14756926    -0.12400
C3311       C  0.28350651  0.41279934  0.14361505     0.13300
C3312       C  0.26480633  0.41127667  0.16530101    -0.22800
C3313       C  0.27574554  0.36192182  0.22442640    -0.05900
H3314       H  0.30834211  0.36872329  0.17660976     0.14800
C3315       C  0.28553383  0.43111450  0.11662291    -0.16100
H3316       H  0.25248489  0.42301447  0.16156353     0.09100
H3317       H  0.20104387  0.34678084  0.20180493     0.07000
H3318       H  0.17869220  0.36387311  0.20819105     0.08200
H3319       H  0.19023545  0.35018814  0.24840140     0.07200
H3320       H  0.25445796  0.43828049  0.22337250     0.02100
H3321       H  0.26652419  0.42212108  0.25964250     0.02600
H3322       H  0.24495130  0.43955378  0.27120237     0.06100
H3323       H  0.29018903  0.35190358  0.22510067     0.05100
H3324       H  0.26219940  0.35145594  0.21774771    -0.00700
H3325       H  0.27349561  0.36890540  0.25308447     0.00800
H3326       H  0.27173396  0.43128537  0.09722223     0.04400
H3327       H  0.29994999  0.43026957  0.09868505     0.06400
H3328       H  0.28579727  0.44615580  0.13292466     0.07300
C3329       C  0.75951751  0.15237357  0.65355302    -0.22400
C3330       C  0.75435875  0.15793473  0.69106739     0.09600
C3331       C  0.77062233  0.16266820  0.71690781     0.10000
C3332       C  0.79176414  0.16068537  0.70519688    -0.17300
C3333       C  0.79700203  0.15363883  0.66851997    -0.27700
C3334       C  0.78071976  0.14999066  0.64199337     0.18300
C3335       C  0.73211355  0.15587503  0.70390629     0.12300
C3336       C  0.76564799  0.16874934  0.75731465    -0.12100
H3337       H  0.80431150  0.16315109  0.72564879     0.12600
C3338       C  0.78513107  0.14236549  0.60225491    -0.22900
H3339       H  0.74692004  0.14867525  0.63381788     0.08200
C3340       C  0.71714651  0.17217160  0.69905886     0.04600
C3341       C  0.69580549  0.16836708  0.70824017    -0.20100
C3342       C  0.68922802  0.14850789  0.72144586    -0.12400
C3343       C  0.70451560  0.13271427  0.72866437     0.13300
C3344       C  0.72578460  0.13661351  0.71981731    -0.22800
C3345       C  0.72359494  0.19318535  0.68284874    -0.05900
H3346       H  0.68400777  0.18033498  0.70219713     0.14800
C3347       C  0.69877624  0.11141660  0.74475282    -0.16100
H3348       H  0.73743884  0.12426634  0.72416085     0.09100
H3349       H  0.77826132  0.15366442  0.58165318     0.07000
H3350       H  0.77773476  0.12662762  0.59796727     0.08200
H3351       H  0.80229892  0.14095685  0.59608603     0.07200
H3352       H  0.75692228  0.15574878  0.77152127     0.02100
H3353       H  0.75574414  0.18324597  0.75777082     0.02600
H3354       H  0.78025138  0.17193875  0.77381036     0.06100
H3355       H  0.70992520  0.20416664  0.68073653     0.05100
H3356       H  0.73033431  0.19091717  0.65399640    -0.00700
H3357       H  0.73570121  0.20061641  0.70130758     0.00800
H3358       H  0.70271772  0.09884558  0.72384359     0.04400
H3359       H  0.68174603  0.11014742  0.75219544     0.06400
H3360       H  0.70795846  0.10864855  0.77106331     0.07300
C3361       C  0.88887851  0.04081595  0.74434496    -0.22400
C3362       C  0.87021401  0.02939756  0.75050162     0.09600
C3363       C  0.85050478  0.03940960  0.74549531     0.10000
C3364       C  0.84987310  0.06081420  0.73542800    -0.17300
C3365       C  0.86850511  0.07283913  0.73078695    -0.27700
C3366       C  0.88839112  0.06239751  0.73469656     0.18300
C3367       C  0.87144256  0.00741078  0.76489527     0.12300
C3368       C  0.83006192  0.02753416  0.75130586    -0.12100
H3369       H  0.83454429  0.06829071  0.73235608     0.12600
C3370       C  0.90926094  0.07364744  0.72967277    -0.22900
H3371       H  0.90393426  0.03290206  0.74830027     0.08200
C3372       C  0.87509761  0.98999282  0.74070993     0.04600
C3373       C  0.87396023  0.96940018  0.75553418    -0.20100
C3374       C  0.86911570  0.96583345  0.79402041    -0.12400
C3375       C  0.86655904  0.98351406  0.81851969     0.13300
C3376       C  0.86777149  0.00400241  0.80355338    -0.22800
C3377       C  0.87973846  0.99316505  0.69920664    -0.05900
H3378       H  0.87629935  0.95602265  0.73670556     0.14800
C3379       C  0.86296718  0.98111386  0.86059806    -0.16100
H3380       H  0.86536445  0.01754753  0.82198779     0.09100
H3381       H  0.91020387  0.08065344  0.70088958     0.07000
H3382       H  0.92292610  0.06273210  0.73272201     0.08200
H3383       H  0.91100018  0.08614284  0.75160239     0.07200
H3384       H  0.82889653  0.02196296  0.78104713     0.02100
H3385       H  0.82952286  0.01371269  0.73186169     0.02600
H3386       H  0.81602585  0.03759507  0.74556687     0.06100
H3387       H  0.88203112  0.97788334  0.68415334     0.05100
H3388       H  0.89442154  0.00262092  0.69582335    -0.00700
H3389       H  0.86636738  0.00164444  0.68568325     0.00800
H3390       H  0.86303597  0.99661956  0.87545599     0.04400
H3391       H  0.87574638  0.97129028  0.87300842     0.06400
H3392       H  0.84733465  0.97372851  0.86610042     0.07300
C3393       C  0.99332631  0.14177572  0.71102221    -0.22400
C3394       C  0.99664194  0.13401601  0.74765034     0.09600
C3395       C  0.97898319  0.12826724  0.76994209     0.10000
C3396       C  0.95840988  0.13021019  0.75492095    -0.17300
C3397       C  0.95487402  0.13798544  0.71801068    -0.27700
C3398       C  0.97284280  0.14388822  0.69584175     0.18300
C3399       C  0.01883194  0.13251089  0.76193133     0.12300
C3400       C  0.98190354  0.11988946  0.80947768    -0.12100
H3401       H  0.94500313  0.12564160  0.77231474     0.12600
C3402       C  0.97093614  0.15214043  0.65591122    -0.22900
H3403       H  0.00699043  0.14624463  0.69415697     0.08200
C3404       C  0.03244019  0.11581273  0.75106396     0.04600
C3405       C  0.05388331  0.11627064  0.76193677    -0.20100
C3406       C  0.06227879  0.13331051  0.78275799    -0.12400
C3407       C  0.04826458  0.14945761  0.79538039     0.13300
C3408       C  0.02678365  0.14881514  0.78478417    -0.22800
C3409       C  0.02436304  0.09764262  0.72755840    -0.05900
H3410       H  0.06430574  0.10363677  0.75277729     0.14800
C3411       C  0.05566283  0.16724423  0.82060278    -0.16100
H3412       H  0.01620435  0.16143648  0.79351497     0.09100
H3413       H  0.96267052  0.14037416  0.63785199     0.07000
H3414       H  0.98666512  0.15516155  0.64280497     0.08200
H3415       H  0.96218054  0.16735570  0.65598073     0.07200
H3416       H  0.98988589  0.13195164  0.82730712     0.02100
H3417       H  0.99176341  0.10536155  0.80853319     0.02600
H3418       H  0.96652650  0.11590870  0.82307031     0.06100
H3419       H  0.03696076  0.08578413  0.72180399     0.05100
H3420       H  0.01848142  0.10353670  0.69992472    -0.00700
H3421       H  0.01123072  0.08964308  0.74282964     0.00800
H3422       H  0.06682370  0.17763702  0.80506898     0.04400
H3423       H  0.06352500  0.16068209  0.84610201     0.06400
H3424       H  0.04225301  0.17727244  0.83036264     0.07300
C3425       C  0.77084682  0.17402035  0.18333905    -0.22400
C3426       C  0.75553642  0.15863030  0.17525727     0.09600
C3427       C  0.76150578  0.14003371  0.15568804     0.10000
C3428       C  0.78291859  0.13642230  0.14740470    -0.17300
C3429       C  0.79845626  0.15116192  0.15745782    -0.27700
C3430       C  0.79232855  0.17053155  0.17443584     0.18300
C3431       C  0.73346347  0.16131505  0.18897927     0.12300
C3432       C  0.74535020  0.12359239  0.14484970    -0.12100
H3433       H  0.78770759  0.12155765  0.13460518     0.12600
C3434       C  0.80853928  0.18691464  0.18522663    -0.22900
H3435       H  0.76608645  0.18837779  0.19789404     0.08200
C3436       C  0.72713694  0.15393820  0.22509989     0.04600
C3437       C  0.70542747  0.15165162  0.23333555    -0.20100
C3438       C  0.69008928  0.15678143  0.20626077    -0.12400
C3439       C  0.69650128  0.16603833  0.17154150     0.13300
C3440       C  0.71811645  0.16813271  0.16331319    -0.22800
C3441       C  0.74332763  0.14746088  0.25405788    -0.05900
H3442       H  0.70048869  0.14456538  0.25987642     0.14800
C3443       C  0.68095407  0.17301492  0.14178505    -0.16100
H3444       H  0.72302540  0.17397458  0.13577102     0.09100
H3445       H  0.82000534  0.18011367  0.20562666     0.07000
H3446       H  0.80107500  0.20097176  0.19869420     0.08200
H3447       H  0.81716064  0.19225236  0.15948516     0.07200
H3448       H  0.73349627  0.13063191  0.12545590     0.02100
H3449       H  0.73718788  0.11764409  0.17062468     0.02600
H3450       H  0.75274985  0.10991263  0.13007748     0.06100
H3451       H  0.73575282  0.14195102  0.28072754     0.05100
H3452       H  0.75360845  0.16115690  0.26097455    -0.00700
H3453       H  0.75326166  0.13441425  0.24263510     0.00800
H3454       H  0.68373481  0.18990735  0.13495066     0.04400
H3455       H  0.66428476  0.17151617  0.15117549     0.06400
H3456       H  0.68319347  0.16342122  0.11565329     0.07300
C3457       C  0.85513592  0.03556635  0.22243016    -0.22400
C3458       C  0.87215305  0.02804632  0.24381919     0.09600
C3459       C  0.88848703  0.04207050  0.25427608     0.10000
C3460       C  0.88688783  0.06358397  0.24458915    -0.17300
C3461       C  0.86909023  0.07152971  0.22528651    -0.27700
C3462       C  0.85324575  0.05708144  0.21324314     0.18300
C3463       C  0.87114888  0.00599694  0.25823271     0.12300
C3464       C  0.90726082  0.03441375  0.27657424    -0.12100
H3465       H  0.89913626  0.07440919  0.25381444     0.12600
C3466       C  0.83419451  0.06403053  0.19083601    -0.22900
H3467       H  0.84273488  0.02462216  0.21435284     0.08200
C3468       C  0.86037192  0.00139077  0.29227496     0.04600
C3469       C  0.85834658  0.98032077  0.30402502    -0.20100
C3470       C  0.86672168  0.96341750  0.28257037    -0.12400
C3471       C  0.87776151  0.96818659  0.24832366     0.13300
C3472       C  0.87976359  0.98942056  0.23670565    -0.22800
C3473       C  0.85076544  0.01878552  0.31608795    -0.05900
H3474       H  0.85005574  0.97711377  0.33033385     0.14800
C3475       C  0.88717639  0.95121363  0.22330065    -0.16100
H3476       H  0.88787594  0.99314276  0.21042052     0.09100
H3477       H  0.82461539  0.05034802  0.18110719     0.07000
H3478       H  0.83937543  0.07291329  0.16533708     0.08200
H3479       H  0.82368228  0.07404826  0.20863845     0.07200
H3480       H  0.91572976  0.02197060  0.26022257     0.02100
H3481       H  0.90189860  0.02774834  0.30405480     0.02600
H3482       H  0.91859744  0.04740009  0.28259446     0.06100
H3483       H  0.84290143  0.01251795  0.34192825     0.05100
H3484       H  0.83871730  0.02744578  0.29936182    -0.00700
H3485       H  0.86328328  0.02999127  0.32517226     0.00800
H3486       H  0.89458023  0.95790871  0.19736674     0.04400
H3487       H  0.87461218  0.94007712  0.21408811     0.06400
H3488       H  0.89971804  0.94256081  0.23883909     0.07300
C3489       C  0.02369354  0.14489553  0.29916674    -0.22400
C3490       C  0.01615598  0.12859592  0.27601547     0.09600
C3491       C  0.02986763  0.11215353  0.26470524     0.10000
C3492       C  0.05136964  0.11330299  0.27425621    -0.17300
C3493       C  0.05947925  0.13076196  0.29423622    -0.27700
C3494       C  0.04520270  0.14621606  0.30861586     0.18300
C3495       C  0.99477121  0.13074552  0.25968304     0.12300
C3496       C  0.02192569  0.09383542  0.24140706    -0.12100
H3497       H  0.06208454  0.10118265  0.26389206     0.12600
C3498       C  0.05234158  0.16418966  0.33371550    -0.22900
H3499       H  0.01286174  0.15724138  0.30821075     0.08200
C3500       C  0.97642844  0.12434237  0.27922030     0.04600
C3501       C  0.95657023  0.12752006  0.26243977    -0.20100
C3502       C  0.95461683  0.13707561  0.22654139    -0.12400
C3503       C  0.97328094  0.14349050  0.20708054     0.13300
C3504       C  0.99304151  0.14021372  0.22404722    -0.22800
C3505       C  0.97787060  0.11408967  0.31758727    -0.05900
H3506       H  0.94249075  0.12254283  0.27762943     0.14800
C3507       C  0.97283942  0.15339397  0.16822720    -0.16100
H3508       H  0.00736382  0.14512129  0.20947360     0.09100
H3509       H  0.03868462  0.17331477  0.34513015     0.07000
H3510       H  0.06232299  0.17542372  0.31752257     0.08200
H3511       H  0.06134172  0.15788124  0.35818626     0.07200
H3512       H  0.01562649  0.09961590  0.21399417     0.02100
H3513       H  0.00912933  0.08555186  0.25708478     0.02600
H3514       H  0.03470167  0.08223334  0.23523609     0.06100
H3515       H  0.96199483  0.10989120  0.32893648     0.05100
H3516       H  0.98551668  0.12507924  0.33794284    -0.00700
H3517       H  0.98742870  0.09939935  0.31547361     0.00800
H3518       H  0.98903055  0.15643387  0.15709163     0.04400
H3519       H  0.96451057  0.16883230  0.16946945     0.06400
H3520       H  0.96480640  0.14265662  0.14790898     0.07300
C3521       C  0.86326524  0.12249771  0.89365603    -0.22400
C3522       C  0.87555005  0.13789066  0.91155440     0.09600
C3523       C  0.88669736  0.15284358  0.88959171     0.10000
C3524       C  0.88487578  0.15238598  0.84988816    -0.17300
C3525       C  0.87205284  0.13735140  0.83182241    -0.27700
C3526       C  0.86138387  0.12191812  0.85408888     0.18300
C3527       C  0.87704746  0.13755378  0.95340110     0.12300
C3528       C  0.90035589  0.16934444  0.90818173    -0.12100
H3529       H  0.89315031  0.16404713  0.83296508     0.12600
C3530       C  0.84855922  0.10428295  0.83656850    -0.22900
H3531       H  0.85512714  0.11085514  0.91086176     0.08200
C3532       C  0.86175247  0.14743605  0.97664628     0.04600
C3533       C  0.86421037  0.14702117  0.01619017    -0.20100
C3534       C  0.88171623  0.13703967  0.03309113    -0.12400
C3535       C  0.89671838  0.12656412  0.00940034     0.13300
C3536       C  0.89406162  0.12693078  0.96992351    -0.22800
C3537       C  0.84305733  0.15869410  0.95963416    -0.05900
H3538       H  0.85268741  0.15510077  0.03390146     0.14800
C3539       C  0.91543741  0.11466898  0.02505925    -0.16100
H3540       H  0.90549971  0.11911281  0.95164250     0.09100
H3541       H  0.83416020  0.11069813  0.82285741     0.07000
H3542       H  0.84316179  0.09270267  0.85814745     0.08200
H3543       H  0.85832312  0.09560516  0.81537315     0.07200
H3544       H  0.91312884  0.16156786  0.92457909     0.02100
H3545       H  0.89058315  0.17917033  0.92766184     0.02600
H3546       H  0.90785658  0.17993876  0.88698404     0.06100
H3547       H  0.83267592  0.16577162  0.98178601     0.05100
H3548       H  0.83346011  0.14737257  0.94283418    -0.00700
H3549       H  0.84867223  0.17157353  0.94081060     0.00800
H3550       H  0.92423110  0.10604421  0.00246726     0.04400
H3551       H  0.90996799  0.10286235  0.04615253     0.06400
H3552       H  0.92677284  0.12580172  0.03836497     0.07300
C3553       C  0.85885094  0.14494556  0.47461685    -0.22400
C3554       C  0.87188564  0.13129582  0.45370990     0.09600
C3555       C  0.88534794  0.11713018  0.47272517     0.10000
C3556       C  0.88624882  0.11763774  0.51245880    -0.17300
C3557       C  0.87380026  0.13184181  0.53372102    -0.27700
C3558       C  0.85948711  0.14538387  0.51440608     0.18300
C3559       C  0.87129866  0.13229030  0.41180683     0.12300
C3560       C  0.89886886  0.10162058  0.45099878    -0.12100
H3561       H  0.89705522  0.10712940  0.52698383     0.12600
C3562       C  0.84545547  0.16099531  0.53501393    -0.22900
H3563       H  0.84837701  0.15556779  0.45956536     0.08200
C3564       C  0.85579900  0.12132842  0.39109160     0.04600
C3565       C  0.85564257  0.12294521  0.35151057    -0.20100
C3566       C  0.87059973  0.13534326  0.33183205    -0.12400
C3567       C  0.88628372  0.14626370  0.35285221     0.13300
C3568       C  0.88634389  0.14461911  0.39264903    -0.22800
C3569       C  0.83946295  0.10786777  0.41078993    -0.05900
H3570       H  0.84374740  0.11426499  0.33581017     0.14800
C3571       C  0.90260866  0.16007906  0.33396063    -0.16100
H3572       H  0.89814981  0.15303268  0.40903179     0.09100
H3573       H  0.83604380  0.17074249  0.51507426     0.07000
H3574       H  0.85518836  0.17192017  0.55236326     0.08200
H3575       H  0.83409905  0.15244624  0.55349941     0.07200
H3576       H  0.90991081  0.11024707  0.43200576     0.02100
H3577       H  0.88863406  0.09113251  0.43367762     0.02600
H3578       H  0.90840040  0.09155048  0.47022234     0.06100
H3579       H  0.82857061  0.10018975  0.39029963     0.05100
H3580       H  0.82983008  0.11779395  0.43031891    -0.00700
H3581       H  0.84743178  0.09526872  0.42729073     0.00800
H3582       H  0.91277238  0.16825631  0.35503453     0.04400
H3583       H  0.89463451  0.17234723  0.31667500     0.06400
H3584       H  0.91313531  0.15034812  0.31564894     0.07300
C3585       C  0.76345994  0.35560712  0.97284731    -0.22400
C3586       C  0.75902125  0.34851832  0.93592833     0.09600
C3587       C  0.77581345  0.34205450  0.91213420     0.10000
C3588       C  0.79675021  0.34398199  0.92502799    -0.17300
C3589       C  0.80130515  0.35245840  0.96100279    -0.27700
C3590       C  0.78442958  0.35776403  0.98562236     0.18300
C3591       C  0.73703555  0.35050497  0.92146445     0.12300
C3592       C  0.77164763  0.33398708  0.87262925    -0.12100
H3593       H  0.80972435  0.34022738  0.90591473     0.12600
C3594       C  0.78805087  0.36685568  0.02455646    -0.22900
H3595       H  0.75051356  0.36056992  0.99110356     0.08200
C3596       C  0.72125946  0.33536451  0.92945025     0.04600
C3597       C  0.70014938  0.33948432  0.91909668    -0.20100
C3598       C  0.69452634  0.35857183  0.90154853    -0.12400
C3599       C  0.71060358  0.37301061  0.89122298     0.13300
C3600       C  0.73164893  0.36878796  0.90129242    -0.22800
C3601       C  0.72662450  0.31527704  0.95002498    -0.05900
H3602       H  0.68779116  0.32850612  0.92730399     0.14800
C3603       C  0.70597411  0.39319453  0.87023596    -0.16100
H3604       H  0.74386284  0.38023120  0.89455577     0.09100
H3605       H  0.78011871  0.35675014  0.04600815     0.07000
H3606       H  0.78123933  0.38301727  0.02614172     0.08200
H3607       H  0.80507500  0.36778860  0.03195302     0.07200
H3608       H  0.76369075  0.34640093  0.85566786     0.02100
H3609       H  0.76130347  0.31982937  0.87398854     0.02600
H3610       H  0.78653898  0.32949665  0.85778937     0.06100
H3611       H  0.71246627  0.30511226  0.95404486     0.05100
H3612       H  0.73318771  0.31906911  0.97839341    -0.00700
H3613       H  0.73856227  0.30620279  0.93347295     0.00800
H3614       H  0.71040058  0.40696625  0.88809749     0.04400
H3615       H  0.68906487  0.39472993  0.86233707     0.06400
H3616       H  0.71542018  0.39357988  0.84361704     0.07300
C3617       C  0.86589609  0.50280695  0.83324622    -0.22400
C3618       C  0.86615309  0.49935446  0.87241820     0.09600
C3619       C  0.86577998  0.51681395  0.89738045     0.10000
C3620       C  0.86519489  0.53744039  0.88247880    -0.17300
C3621       C  0.86458805  0.54099839  0.84309903    -0.27700
C3622       C  0.86502096  0.52330996  0.81819062     0.18300
C3623       C  0.86649861  0.47716492  0.88615782     0.12300
C3624       C  0.86574757  0.51360914  0.93965515    -0.12100
H3625       H  0.86483181  0.55083544  0.90170560     0.12600
C3626       C  0.86517271  0.52576666  0.77565414    -0.22900
H3627       H  0.86624117  0.48927050  0.81432153     0.08200
C3628       C  0.84781107  0.46511440  0.88828355     0.04600
C3629       C  0.84905131  0.44354904  0.89714555    -0.20100
C3630       C  0.86862511  0.43334763  0.90342024    -0.12400
C3631       C  0.88735396  0.44585675  0.90274450     0.13300
C3632       C  0.88596334  0.46755721  0.89413052    -0.22800
C3633       C  0.82653771  0.47495877  0.88047289    -0.05900
H3634       H  0.83449353  0.43452135  0.89810818     0.14800
C3635       C  0.90896101  0.43662691  0.90980140    -0.16100
H3636       H  0.90023853  0.47701488  0.89242629     0.09100
H3637       H  0.84999021  0.53270871  0.76602331     0.07000
H3638       H  0.86705716  0.51033361  0.76091872     0.08200
H3639       H  0.87856651  0.53603830  0.76691045     0.07200
H3640       H  0.88029079  0.50501274  0.94817188     0.02100
H3641       H  0.85165380  0.50423437  0.94811037     0.02600
H3642       H  0.86526620  0.52888552  0.95523862     0.06100
H3643       H  0.81344694  0.46337454  0.88361515     0.05100
H3644       H  0.82615535  0.48113478  0.85105970    -0.00700
H3645       H  0.82364016  0.48815346  0.90065684     0.00800
H3646       H  0.91250026  0.42443379  0.88806755     0.04400
H3647       H  0.90955802  0.42960657  0.93858621     0.06400
H3648       H  0.92161120  0.44877760  0.90810163     0.07300
C3649       C  0.98609080  0.38307078  0.86767564    -0.22400
C3650       C  0.00234828  0.37572224  0.89112131     0.09600
C3651       C  0.99717313  0.36630968  0.92613300     0.10000
C3652       C  0.97585346  0.36454824  0.93698866    -0.17300
C3653       C  0.95932642  0.37186632  0.91371440    -0.27700
C3654       C  0.96464787  0.38119595  0.87830495     0.18300
C3655       C  0.02473513  0.37741319  0.87829572     0.12300
C3656       C  0.01415194  0.35774118  0.95181114    -0.12100
H3657       H  0.97213209  0.35739387  0.96408171     0.12600
C3658       C  0.94803791  0.38872689  0.85095106    -0.22900
H3659       H  0.99025190  0.39017104  0.84072721     0.08200
C3660       C  0.03339555  0.36312797  0.85163523     0.04600
C3661       C  0.05520124  0.36376622  0.84364055    -0.20100
C3662       C  0.06862796  0.37835040  0.86167517    -0.12400
C3663       C  0.05978117  0.39291966  0.88805401     0.13300
C3664       C  0.03790738  0.39244603  0.89541884    -0.22800
C3665       C  0.01973134  0.34681323  0.83246912    -0.05900
H3666       H  0.06190083  0.35255273  0.82360950     0.14800
C3667       C  0.07278644  0.40828596  0.91096746    -0.16100
H3668       H  0.03119145  0.40329291  0.91609364     0.09100
H3669       H  0.93713856  0.37556067  0.84377777     0.07000
H3670       H  0.95513569  0.39452251  0.82406070     0.08200
H3671       H  0.93903592  0.40202305  0.86363311     0.07200
H3672       H  0.02480523  0.37070427  0.96098832     0.02100
H3673       H  0.02354725  0.34555089  0.93649069     0.02600
H3674       H  0.00734963  0.35035732  0.97765888     0.06100
H3675       H  0.02907718  0.33659898  0.81294481     0.05100
H3676       H  0.00724568  0.35475689  0.81564174    -0.00700
H3677       H  0.01217363  0.33655295  0.85411815     0.00800
H3678       H  0.06791926  0.42467402  0.90399042     0.04400
H3679       H  0.09002469  0.40679537  0.90636284     0.06400
H3680       H  0.06990157  0.40555979  0.94165246     0.07300
C3681       C  0.89932902  0.24033650  0.10905460    -0.22400
C3682       C  0.88634191  0.24256551  0.07706466     0.09600
C3683       C  0.87295641  0.22574820  0.06636706     0.10000
C3684       C  0.87281775  0.20712254  0.08792580    -0.17300
C3685       C  0.88624887  0.20455983  0.11926469    -0.27700
C3686       C  0.89954932  0.22148188  0.13018190     0.18300
C3687       C  0.88688909  0.26262716  0.05516415     0.12300
C3688       C  0.85951732  0.22708610  0.03122338    -0.12100
H3689       H  0.86303597  0.19396503  0.07890800     0.12600
C3690       C  0.91391315  0.22022895  0.16408153    -0.22900
H3691       H  0.90948635  0.25333553  0.11740400     0.08200
C3692       C  0.87183483  0.27871263  0.06167690     0.04600
C3693       C  0.87268488  0.29728279  0.04005940    -0.20100
C3694       C  0.88880803  0.30069648  0.01314005    -0.12400
C3695       C  0.90405863  0.28462208  0.00685728     0.13300
C3696       C  0.90269070  0.26563272  0.02756043    -0.22800
C3697       C  0.85544917  0.27670247  0.09265288    -0.05900
H3698       H  0.86138712  0.30980196  0.04589791     0.14800
C3699       C  0.92161320  0.28729807  0.97822331    -0.16100
H3700       H  0.91420735  0.25319601  0.02271301     0.09100
H3701       H  0.90999326  0.23322759  0.18415017     0.07000
H3702       H  0.93063702  0.22194738  0.15477967     0.08200
H3703       H  0.91230406  0.20512798  0.17968098     0.07200
H3704       H  0.86981781  0.22962805  0.00606190     0.02100
H3705       H  0.84816296  0.24039726  0.03362840     0.02600
H3706       H  0.85030350  0.21236859  0.02652047     0.06100
H3707       H  0.84514695  0.29090720  0.09444882     0.05100
H3708       H  0.86345223  0.27476296  0.12040167    -0.00700
H3709       H  0.84519142  0.26279847  0.08740624     0.00800
H3710       H  0.93134803  0.27274165  0.97547833     0.04400
H3711       H  0.93232139  0.30029931  0.98695755     0.06400
H3712       H  0.91479234  0.29089947  0.95000543     0.07300
C3713       C  0.77310536  0.33898404  0.43251686    -0.22400
C3714       C  0.75851049  0.35509371  0.44051909     0.09600
C3715       C  0.76474487  0.37241743  0.46318166     0.10000
C3716       C  0.78579801  0.37387419  0.47541870    -0.17300
C3717       C  0.80082531  0.35841801  0.46570321    -0.27700
C3718       C  0.79429936  0.34053035  0.44438886     0.18300
C3719       C  0.73687412  0.35410587  0.42433529     0.12300
C3720       C  0.74929647  0.38967718  0.47363169    -0.12100
H3721       H  0.79087377  0.38778036  0.49095272     0.12600
C3722       C  0.80942311  0.32355598  0.43129598    -0.22900
H3723       H  0.76818749  0.32562193  0.41536947     0.08200
C3724       C  0.73137382  0.36572373  0.39163334     0.04600
C3725       C  0.70989019  0.36816193  0.38216550    -0.20100
C3726       C  0.69396584  0.35871857  0.40410678    -0.12400
C3727       C  0.69971230  0.34540208  0.43459601     0.13300
C3728       C  0.72110147  0.34337509  0.44447372    -0.22800
C3729       C  0.74814135  0.37608484  0.36756821    -0.05900
H3730       H  0.70546229  0.37842857  0.35895865     0.14800
C3731       C  0.68358496  0.33400064  0.45857484    -0.16100
H3732       H  0.72539763  0.33421182  0.46921368     0.09100
H3733       H  0.80940969  0.32272866  0.39983454     0.07000
H3734       H  0.80426926  0.30805791  0.44275446     0.08200
H3735       H  0.82590525  0.32634178  0.44043855     0.07200
H3736       H  0.73579700  0.38284825  0.48968622     0.02100
H3737       H  0.74321910  0.39742947  0.44768570     0.02600
H3738       H  0.75676679  0.40202363  0.49158371     0.06100
H3739       H  0.74115492  0.38447753  0.34299073     0.05100
H3740       H  0.75920342  0.36386085  0.35653526    -0.00700
H3741       H  0.75718382  0.38773223  0.38459466     0.00800
H3742       H  0.68718298  0.31682100  0.45852489     0.04400
H3743       H  0.66723138  0.33592174  0.44797442     0.06400
H3744       H  0.68423915  0.33999833  0.48817179     0.07300
C3745       C  0.88848230  0.46757258  0.38490218    -0.22400
C3746       C  0.87100137  0.47927952  0.39778504     0.09600
C3747       C  0.85483034  0.46905318  0.41840165     0.10000
C3748       C  0.85588704  0.44710382  0.42376049    -0.17300
C3749       C  0.87274659  0.43507191  0.40896167    -0.27700
C3750       C  0.88961003  0.44556966  0.39022820     0.18300
C3751       C  0.86826731  0.50123569  0.38389796     0.12300
C3752       C  0.83617378  0.48124421  0.43380107    -0.12100
H3753       H  0.84310704  0.43917088  0.43858096     0.12600
C3754       C  0.90811498  0.43360481  0.37358996    -0.22900
H3755       H  0.90075912  0.47555602  0.36886112     0.08200
C3756       C  0.87795175  0.51880903  0.40123650     0.04600
C3757       C  0.87538962  0.53900435  0.38515678    -0.20100
C3758       C  0.86320899  0.54209380  0.35214524    -0.12400
C3759       C  0.85325590  0.52420866  0.33529416     0.13300
C3760       C  0.85601548  0.50416276  0.35142358    -0.22800
C3761       C  0.89086856  0.51620714  0.43669173    -0.05900
H3762       H  0.88297826  0.55243027  0.39853483     0.14800
C3763       C  0.84005168  0.52566215  0.29982743    -0.16100
H3764       H  0.84867568  0.49047572  0.33838211     0.09100
H3765       H  0.91924704  0.44424055  0.35840715     0.07000
H3766       H  0.90237665  0.42160470  0.35301865     0.08200
H3767       H  0.91709625  0.42569516  0.39650944     0.07200
H3768       H  0.82734184  0.48869572  0.41020833     0.02100
H3769       H  0.84181105  0.49374026  0.45347916     0.02600
H3770       H  0.82504592  0.47087789  0.44958685     0.06100
H3771       H  0.89727128  0.53154606  0.44686262     0.05100
H3772       H  0.90439326  0.50541715  0.43104592    -0.00700
H3773       H  0.88083414  0.50943702  0.45953967     0.00800
H3774       H  0.83434476  0.50992304  0.29029550     0.04400
H3775       H  0.84962423  0.53243005  0.27635529     0.06400
H3776       H  0.82583207  0.53555752  0.30523515     0.07300
C3777       C  0.99738983  0.36739107  0.41219760    -0.22400
C3778       C  0.99926807  0.37875816  0.37837968     0.09600
C3779       C  0.98102087  0.38642369  0.36032867     0.10000
C3780       C  0.96113494  0.38261688  0.37673166    -0.17300
C3781       C  0.95897779  0.37119538  0.41082620    -0.27700
C3782       C  0.97754391  0.36348864  0.42881802     0.18300
C3783       C  0.02064721  0.38176284  0.36214724     0.12300
C3784       C  0.98255199  0.39855802  0.32374781    -0.12100
H3785       H  0.94717588  0.38861472  0.36258834     0.12600
C3786       C  0.97690902  0.35149753  0.46570330    -0.22900
H3787       H  0.01164359  0.36154368  0.42564274     0.08200
C3788       C  0.03366115  0.39873424  0.37342665     0.04600
C3789       C  0.05498336  0.39896071  0.36205695    -0.20100
C3790       C  0.06354576  0.38237859  0.34025550    -0.12400
C3791       C  0.04990461  0.36644124  0.32614980     0.13300
C3792       C  0.02867005  0.36620127  0.33774536    -0.22800
C3793       C  0.02531321  0.41598151  0.39896195    -0.05900
H3794       H  0.06534776  0.41124808  0.37273175     0.14800
C3795       C  0.05720863  0.34938921  0.29914231    -0.16100
H3796       H  0.01842896  0.35343800  0.32855682     0.09100
H3797       H  0.96919127  0.36127214  0.48801737     0.07000
H3798       H  0.99303690  0.34743497  0.47583553     0.08200
H3799       H  0.96816732  0.33643379  0.46192100     0.07200
H3800       H  0.99011011  0.38855143  0.30159961     0.02100
H3801       H  0.99221082  0.41300764  0.32798224     0.02600
H3802       H  0.96671540  0.40345872  0.31335911     0.06100
H3803       H  0.03762281  0.42801481  0.40520864     0.05100
H3804       H  0.01989877  0.40911772  0.42625615    -0.00700
H3805       H  0.01180309  0.42407023  0.38516330     0.00800
H3806       H  0.05634927  0.33377570  0.31334317     0.04400
H3807       H  0.07354657  0.35195376  0.28854856     0.06400
H3808       H  0.04673064  0.34915775  0.27393160     0.07300
C3809       C  0.89268198  0.35173460  0.66156009    -0.22400
C3810       C  0.87924181  0.36622195  0.67939273     0.09600
C3811       C  0.86660883  0.37988794  0.65736605     0.10000
C3812       C  0.86803983  0.37889887  0.61757916    -0.17300
C3813       C  0.88179439  0.36452103  0.59971662    -0.27700
C3814       C  0.89376567  0.35028458  0.62212417     0.18300
C3815       C  0.87854014  0.36621607  0.72126184     0.12300
C3816       C  0.85165091  0.39537938  0.67582691    -0.12100
H3817       H  0.85880622  0.38966855  0.60043573     0.12600
C3818       C  0.90734380  0.33280682  0.60584258    -0.22900
H3819       H  0.90212338  0.34111053  0.67868983     0.08200
C3820       C  0.86875221  0.34961389  0.74134981     0.04600
C3821       C  0.86914871  0.34982361  0.78102860    -0.20100
C3822       C  0.87899084  0.36626378  0.80107908    -0.12400
C3823       C  0.88877413  0.38295871  0.78089372     0.13300
C3824       C  0.88868323  0.38250346  0.74112646    -0.22800
C3825       C  0.85735570  0.33201496  0.72099954    -0.05900
H3826       H  0.86125836  0.33733559  0.79661765     0.14800
C3827       C  0.89840799  0.40202439  0.79993659    -0.16100
H3828       H  0.89625948  0.39515056  0.72545200     0.09100
H3829       H  0.90249030  0.31746154  0.61837401     0.07000
H3830       H  0.92421127  0.33575846  0.61284401     0.08200
H3831       H  0.90583552  0.33101751  0.57485591     0.07200
H3832       H  0.86065166  0.40666455  0.69371045     0.02100
H3833       H  0.84008214  0.38675884  0.69381608     0.02600
H3834       H  0.84270614  0.40461499  0.65446956     0.06100
H3835       H  0.84995124  0.32074783  0.74116503     0.05100
H3836       H  0.86861440  0.32299469  0.70293878    -0.00700
H3837       H  0.84465933  0.33872667  0.70297088     0.00800
H3838       H  0.91540383  0.40317134  0.79206796     0.04400
H3839       H  0.89723700  0.40169307  0.83122136     0.06400
H3840       H  0.89017321  0.41652105  0.79016733     0.07300
C3841       C  0.86658391  0.37823654  0.15941172    -0.22400
C3842       C  0.87973145  0.36449510  0.17985491     0.09600
C3843       C  0.89300564  0.35025143  0.16026944     0.10000
C3844       C  0.89331537  0.35045989  0.12059932    -0.17300
C3845       C  0.88059086  0.36449989  0.09988664    -0.27700
C3846       C  0.86680662  0.37837613  0.11947677     0.18300
C3847       C  0.87950273  0.36518061  0.22181911     0.12300
C3848       C  0.90710408  0.33507485  0.18126416    -0.12100
H3849       H  0.90373432  0.33965554  0.10554704     0.12600
C3850       C  0.85302371  0.39382071  0.09854659    -0.22900
H3851       H  0.85633728  0.38903713  0.17480780     0.08200
C3852       C  0.89193507  0.37980328  0.24225760     0.04600
C3853       C  0.89128537  0.37968071  0.28209860    -0.20100
C3854       C  0.87844966  0.36525809  0.30171654    -0.12400
C3855       C  0.86685171  0.34992913  0.28111082     0.13300
C3856       C  0.86733553  0.35027505  0.24140371    -0.22800
C3857       C  0.90570005  0.39559278  0.22195731    -0.05900
H3858       H  0.90018300  0.39137118  0.29793528     0.14800
C3859       C  0.85417542  0.33270263  0.30002539    -0.16100
H3860       H  0.85829587  0.33869453  0.22554504     0.09100
H3861       H  0.84382611  0.40400162  0.11835543     0.07000
H3862       H  0.84159522  0.38515090  0.08043877     0.08200
H3863       H  0.86301219  0.40420587  0.08054025     0.07200
H3864       H  0.89731871  0.32435134  0.19896101     0.02100
H3865       H  0.91813129  0.34399869  0.19978961     0.02600
H3866       H  0.91668607  0.32519551  0.16154609     0.06100
H3867       H  0.91447448  0.40581699  0.24215460     0.05100
H3868       H  0.89575639  0.40588970  0.20384374    -0.00700
H3869       H  0.91743421  0.38716916  0.20388833     0.00800
H3870       H  0.83715842  0.33460852  0.29303705     0.04400
H3871       H  0.85589233  0.33256329  0.33127943     0.06400
H3872       H  0.85966096  0.31707231  0.28944466     0.07300
C3873       C  0.86815462  0.26976218  0.53247152    -0.22400
C3874       C  0.88607362  0.26145939  0.55039863     0.09600
C3875       C  0.90543677  0.27236764  0.54771128     0.10000
C3876       C  0.90635737  0.29160760  0.52810169    -0.17300
C3877       C  0.88826983  0.30075034  0.51130423    -0.27700
C3878       C  0.86887819  0.28926225  0.51316476     0.18300
C3879       C  0.88479438  0.24060161  0.56971035     0.12300
C3880       C  0.92512133  0.26388895  0.56634336    -0.12100
H3881       H  0.92135552  0.29988163  0.52720613     0.12600
C3882       C  0.84876990  0.29721166  0.49532644    -0.22900
H3883       H  0.85344704  0.26097688  0.53395398     0.08200
C3884       C  0.87753686  0.23828077  0.60742755     0.04600
C3885       C  0.87795996  0.21814742  0.62465591    -0.20100
C3886       C  0.88590542  0.20036860  0.60518095    -0.12400
C3887       C  0.89270730  0.20289108  0.56680219     0.13300
C3888       C  0.89210557  0.22289542  0.54998687    -0.22800
C3889       C  0.86986138  0.25715486  0.62962144    -0.05900
H3890       H  0.87258865  0.21639527  0.65369822     0.14800
C3891       C  0.90023974  0.18508978  0.54151658    -0.16100
H3892       H  0.89752913  0.22475330  0.52095014     0.09100
H3893       H  0.84347552  0.31194550  0.50962453     0.07000
H3894       H  0.83565272  0.28561577  0.49793359     0.08200
H3895       H  0.85147442  0.30006545  0.46465022     0.07200
H3896       H  0.92930663  0.24827750  0.55398493     0.02100
H3897       H  0.92231430  0.26210928  0.59727135     0.02600
H3898       H  0.93887678  0.27458739  0.56234471     0.06100
H3899       H  0.86497632  0.25276205  0.65883743     0.05100
H3900       H  0.85603439  0.26432124  0.61517426    -0.00700
H3901       H  0.88271330  0.26907125  0.63164119     0.00800
H3902       H  0.89064083  0.18478694  0.51519268     0.04400
H3903       H  0.89880719  0.16932063  0.55414970     0.06400
H3904       H  0.91707610  0.18771044  0.53366320     0.07300
loop_ 
_geom_bond_atom_site_label_1 
_geom_bond_atom_site_label_2 
_geom_bond_distance 
_geom_bond_site_symmetry_2 
_ccdc_geom_bond_type 
O1           Ni7   1.899       .  S
O1           C22   1.261       .  A
O2          Ni25   1.898       .  S
O2           C11   1.266       .  A
O3           Ni7   1.902       .  S
O3          Ni25   1.894       .  S
O3          Ni19   1.923       .  S
O3           H26   0.967       .  S
C4           O21   1.282       .  A
C4           O13   1.277       .  A
C4         C3813   1.474       .  S
O5          Ni24   1.934       .  S
O5           C11   1.272       .  A
O6          Ni24   1.910       .  S
O6            C8   1.272       .  A
Ni7          O10   1.915       .  S
Ni7          O12   1.905       .  S
C8           O18   1.275       .  A
C8         C3877   1.507       .  S
O9          Ni25   1.929       .  S
O9           C15   1.280       .  A
O10          C15   1.277       .  A
C11        C3781   1.491       .  S
O12          C14   1.266       .  A
O13         Ni24   1.914       .  S
C14          O20   1.268       .  A
C14        C3749   1.486       .  S
C15        C3854   1.474       .  S
H16          O17   0.973       .  S
O17         Ni25   1.913       .  S
O17         Ni19   1.908       .  S
O17         Ni24   1.892       .  S
O18         Ni19   1.937       .  S
Ni19         O23   1.936       .  S
Ni19         O21   1.930       .  S
O20         Ni25   1.928       .  S
C22          O23   1.272       .  A
C22        C3717   1.476       .  S
O27         Ni33   1.895       .  S
O27          C48   1.260       .  A
O28         Ni51   1.914       .  S
O28          C37   1.269       .  A
O29         Ni33   1.903       .  S
O29         Ni51   1.898       .  S
O29         Ni45   1.928       .  S
O29          H52   0.966       .  S
C30          O47   1.283       .  A
C30          O39   1.279       .  A
C30        C3845   1.479       .  S
O31         Ni50   1.933       .  S
O31          C37   1.274       .  A
O32         Ni50   1.909   1_554  S
O32          C34   1.269   1_554  A
Ni33         O36   1.907       .  S
Ni33         O38   1.902       .  S
C34          O44   1.275       .  A
C34        C3694   1.486   1_556  S
O35         Ni51   1.930       .  S
O35          C41   1.281       .  A
O36          C41   1.275       .  A
C37        C3653   1.497       .  S
O38          C40   1.267       .  A
O39         Ni50   1.917   1_554  S
C40          O46   1.272       .  A
C40        C3630   1.504       .  S
C41        C3822   1.470       .  S
H42          O43   0.966       .  S
O43         Ni51   1.916       .  S
O43         Ni45   1.910       .  S
O43         Ni50   1.897       .  S
O44         Ni45   1.932       .  S
Ni45         O49   1.941       .  S
Ni45         O47   1.931   1_556  S
O46         Ni51   1.938       .  S
C48          O49   1.271       .  A
C48        C3589   1.477       .  S
O53         Ni59   1.911       .  S
O53          C74   1.264       .  A
O54         Ni77   1.903       .  S
O54          C63   1.268       .  A
O55         Ni59   1.905       .  S
O55         Ni77   1.898       .  S
O55         Ni71   1.923       .  S
O55          H78   0.966       .  S
C56          O73   1.282       .  A
C56          O65   1.278       .  A
C56        C3534   1.490       .  S
O57         Ni76   1.931       .  S
O57          C63   1.272       .  A
O58         Ni76   1.911       .  S
O58          C60   1.269       .  A
Ni59         O62   1.919       .  S
Ni59         O64   1.905       .  S
C60          O70   1.273       .  A
C60        C3685   1.481       .  S
O61         Ni77   1.927       .  S
O61          C67   1.280       .  A
O62          C67   1.278       .  A
C63        C3502   1.489       .  S
O64          C66   1.266       .  A
O65         Ni76   1.921       .  S
C66          O72   1.272       .  A
C66        C3461   1.494       .  S
C67        C3566   1.490       .  S
H68          O69   0.966       .  S
O69         Ni77   1.917       .  S
O69         Ni71   1.902       .  S
O69         Ni76   1.897       .  S
O70         Ni71   1.930       .  S
Ni71         O75   1.923       .  S
Ni71         O73   1.928       .  S
O72         Ni77   1.935       .  S
C74          O75   1.268       .  A
C74        C3429   1.474       .  S
O79         Ni85   1.902       .  S
O79         C100   1.261       .  A
O80        Ni103   1.924       .  S
O80          C89   1.274       .  A
O81         Ni85   1.903       .  S
O81        Ni103   1.900       .  S
O81         Ni97   1.920       .  S
O81         H104   0.966       .  S
C82          O99   1.277       .  A
C82          O91   1.282       .  A
C82        C3557   1.487       .  S
O83        Ni102   1.936       .  S
O83          C89   1.274       .  A
O84        Ni102   1.910       .  S
O84          C86   1.270       .  A
Ni85         O88   1.913       .  S
Ni85         O90   1.905       .  S
C86          O96   1.279       .  A
C86        C3886   1.493       .  S
O87        Ni103   1.932       .  S
O87          C93   1.285       .  A
O88          C93   1.276       .  A
C89        C3397   1.506       .  S
O90          C92   1.267       .  A
O91        Ni102   1.930       .  S
C92          O98   1.269       .  A
C92        C3365   1.501       .  S
C93        C3525   1.482       .  S
H94          O95   0.966       .  S
O95        Ni103   1.922       .  S
O95         Ni97   1.905       .  S
O95        Ni102   1.886       .  S
O96         Ni97   1.944       .  S
Ni97        O101   1.930       .  S
Ni97         O99   1.919       .  S
O98        Ni103   1.930       .  S
C100        O101   1.268       .  A
C100       C3333   1.471       .  S
O105       Ni111   1.926       .  S
O105        C126   1.270       .  A
O106       Ni129   1.929       .  S
O106        C115   1.271       .  A
O107       Ni111   1.891       .  S
O107       Ni129   1.900       .  S
O107       Ni123   1.914       .  S
O107        H130   0.966       .  S
C108        O125   1.278       .  A
C108        O117   1.278       .  A
C108       C3237   1.478       .  S
O109       Ni128   1.915       .  S
O109        C115   1.265       .  A
O110       Ni128   1.897       .  S
O110        C112   1.264       .  A
Ni111       O114   1.914       .  S
Ni111       O116   1.913       .  S
C112        O122   1.273       .  A
C112       C3182   1.483       .  S
O113       Ni129   1.934       .  S
O113        C119   1.284       .  A
O114        C119   1.278       .  A
C115       C3150   1.478       .  S
O116        C118   1.270       .  A
O117       Ni128   1.923   1_556  S
C118        O124   1.274       .  A
C118       C3310   1.487       .  S
C119       C3278   1.474       .  S
H120        O121   0.966       .  S
O121       Ni129   1.923       .  S
O121       Ni123   1.904       .  S
O121       Ni128   1.903       .  S
O122       Ni123   1.936       .  S
Ni123       O127   1.914       .  S
Ni123       O125   1.922   1_554  S
O124       Ni129   1.931       .  S
C126        O127   1.270       .  A
C126       C3214   1.498       .  S
O131       Ni137   1.935       .  S
O131        C152   1.274       .  A
O132       Ni155   1.932       .  S
O132        C141   1.271       .  A
O133       Ni137   1.894       .  S
O133       Ni155   1.906       .  S
O133       Ni149   1.917       .  S
O133        H156   0.966       .  S
C134        O151   1.280       .  A
C134        O143   1.279       .  A
C134       C3269   1.484       .  S
O135       Ni154   1.909       .  S
O135        C141   1.263       .  A
O136       Ni154   1.900       .  S
O136        C138   1.265       .  A
Ni137       O140   1.919       .  S
Ni137       O142   1.911       .  S
C138        O148   1.272       .  A
C138       C3054   1.480       .  S
O139       Ni155   1.928       .  S
O139        C145   1.282       .  A
O140        C145   1.279       .  A
C141       C3022   1.478       .  S
O142        C144   1.271       .  A
O143       Ni154   1.916       .  S
C144        O150   1.274       .  A
C144       C3118   1.487       .  S
C145       C3246   1.478       .  S
H146        O147   0.967       .  S
O147       Ni155   1.920       .  S
O147       Ni149   1.902       .  S
O147       Ni154   1.901       .  S
O148       Ni149   1.935       .  S
Ni149       O153   1.916       .  S
Ni149       O151   1.929       .  S
O150       Ni155   1.936       .  S
C152        O153   1.271       .  A
C152       C3077   1.499       .  S
O157       Ni163   1.942       .  S
O157        C178   1.277       .  A
O158       Ni181   1.925       .  S
O158        C167   1.269       .  A
O159       Ni163   1.899       .  S
O159       Ni181   1.904       .  S
O159       Ni175   1.913       .  S
O159        H182   0.966       .  S
C160        O177   1.279       .  A
C160        O169   1.278       .  A
C160       C2949   1.481       .  S
O161       Ni180   1.910       .  S
O161        C167   1.263       .  A
O162       Ni180   1.896       .  S
O162        C164   1.265       .  A
Ni163       O166   1.923       .  S
Ni163       O168   1.914       .  S
C164        O174   1.270       .  A
C164       C3790   1.478       .  S
O165       Ni181   1.928       .  S
O165        C171   1.281       .  A
O166        C171   1.278       .  A
C167       C2885   1.473       .  S
O168        C170   1.271       .  A
O169       Ni180   1.924       .  S
C170        O176   1.275       .  A
C170       C3301   1.495       .  S
C171       C2981   1.487       .  S
H172        O173   0.966       .  S
O173       Ni181   1.927       .  S
O173       Ni175   1.899       .  S
O173       Ni180   1.910       .  S
O174       Ni175   1.928       .  S
Ni175       O179   1.896       .  S
Ni175       O177   1.928       .  S
O176       Ni181   1.934       .  S
C178        O179   1.264       .  A
C178       C2926   1.496       .  S
O183       Ni189   1.935       .  S
O183        C204   1.275       .  A
O184       Ni207   1.928       .  S
O184        C193   1.269       .  A
O185       Ni189   1.899       .  S
O185       Ni207   1.907       .  S
O185       Ni201   1.921       .  S
O185        H208   0.966       .  S
C186        O203   1.283       .  A
C186        O195   1.278       .  A
C186       C2990   1.482       .  S
O187       Ni206   1.908       .  S
O187        C193   1.264       .  A
O188       Ni206   1.907       .  S
O188        C190   1.267       .  A
Ni189       O192   1.924       .  S
Ni189       O194   1.915       .  S
C190        O200   1.271       .  A
C190       C3662   1.484       .  S
O191       Ni207   1.929       .  S
O191        C197   1.280       .  A
O192        C197   1.280       .  A
C193       C2821   1.474       .  S
O194        C196   1.272       .  A
O195       Ni206   1.918       .  S
C196        O202   1.274       .  A
C196       C3109   1.504       .  S
C197       C2958   1.498       .  S
H198        O199   0.966       .  S
O199       Ni207   1.926       .  S
O199       Ni201   1.901       .  S
O199       Ni206   1.908       .  S
O200       Ni201   1.931       .  S
Ni201       O205   1.916       .  S
Ni201       O203   1.935       .  S
O202       Ni207   1.937       .  S
C204        O205   1.270       .  A
C204       C2853   1.502       .  S
O209       Ni215   1.906       .  S
O209        C230   1.261       .  A
O210       Ni233   1.912       .  S
O210        C219   1.270       .  A
O211       Ni215   1.908       .  S
O211       Ni233   1.906       .  S
O211       Ni227   1.928       .  S
O211        H234   0.967       .  S
C212        O229   1.282       .  A
C212        O221   1.278       .  A
C212       C2734   1.481       .  S
O213       Ni232   1.939       .  S
O213        C219   1.275       .  A
O214       Ni232   1.919       .  S
O214        C216   1.272       .  A
Ni215       O218   1.914       .  S
Ni215       O220   1.899       .  S
C216        O226   1.273       .  A
C216       C2789   1.495       .  S
O217       Ni233   1.931       .  S
O217        C223   1.280       .  A
O218        C223   1.275       .  A
C219       C2693   1.503       .  S
O220        C222   1.265       .  A
O221       Ni232   1.921       .  S
C222        O228   1.272       .  A
C222       C2917   1.480       .  S
C223       C2757   1.489       .  S
H224        O225   0.966       .  S
O225       Ni233   1.915       .  S
O225       Ni227   1.908       .  S
O225       Ni232   1.899       .  S
O226       Ni227   1.929       .  S
Ni227       O231   1.935       .  S
Ni227       O229   1.927       .  S
O228       Ni233   1.932       .  S
C230        O231   1.269       .  A
C230       C2661   1.477       .  S
O235       Ni241   1.910       .  S
O235        C256   1.264       .  A
O236       Ni259   1.918       .  S
O236        C245   1.272       .  A
O237       Ni241   1.900       .  S
O237       Ni259   1.902       .  S
O237       Ni253   1.925       .  S
O237        H260   0.966       .  S
C238        O255   1.285       .  A
C238        O247   1.278       .  A
C238       C2766   1.482       .  S
O239       Ni258   1.922   1_556  S
O239        C245   1.270       .  A
O240       Ni258   1.906       .  S
O240        C242   1.268       .  A
Ni241       O244   1.919       .  S
Ni241       O246   1.901       .  S
C242        O252   1.275   1_554  A
C242       C2629   1.498       .  S
O243       Ni259   1.925       .  S
O243        C249   1.280       .  A
O244        C249   1.278       .  A
C245       C2606   1.494       .  S
O246        C248   1.265       .  A
O247       Ni258   1.915       .  S
C248        O254   1.274       .  A
C248       C2862   1.491       .  S
C249       C2725   1.474       .  S
H250        O251   0.966       .  S
O251       Ni259   1.915       .  S
O251       Ni253   1.900       .  S
O251       Ni258   1.885   1_556  S
O252       Ni253   1.938       .  S
Ni253       O257   1.925       .  S
Ni253       O255   1.937   1_556  S
O254       Ni259   1.941       .  S
C256        O257   1.269       .  A
C256       C2565   1.469       .  S
O261       Ni267   1.914       .  S
O261        C282   1.265       .  A
O262       Ni285   1.920       .  S
O262        C271   1.273       .  A
O263       Ni267   1.903       .  S
O263       Ni285   1.901       .  S
O263       Ni279   1.917       .  S
O263        H286   0.967       .  S
C264        O281   1.279       .  A
C264        O273   1.279       .  A
C264       C2510   1.475       .  S
O265       Ni284   1.930       .  S
O265        C271   1.272       .  A
O266       Ni284   1.909       .  S
O266        C268   1.271       .  A
Ni267       O270   1.924       .  S
Ni267       O272   1.905       .  S
C268        O278   1.275       .  A
C268       C2638   1.507       .  S
O269       Ni285   1.923       .  S
O269        C275   1.281       .  A
O270        C275   1.279       .  A
C271       C2437   1.496       .  S
O272        C274   1.266       .  A
O273       Ni284   1.922       .  S
C274        O280   1.273       .  A
C274       C2478   1.485       .  S
C275       C2533   1.477       .  S
H276        O277   0.966       .  S
O277       Ni285   1.921       .  S
O277       Ni279   1.903       .  S
O277       Ni284   1.891       .  S
O278       Ni279   1.939       .  S
Ni279       O283   1.922       .  S
Ni279       O281   1.923       .  S
O280       Ni285   1.940       .  S
C282        O283   1.268       .  A
C282       C2405   1.470       .  S
O287       Ni293   1.906       .  S
O287        C308   1.263       .  A
O288       Ni311   1.914       .  S
O288        C297   1.271       .  A
O289       Ni293   1.899       .  S
O289       Ni311   1.898       .  S
O289       Ni305   1.922       .  S
O289        H312   0.966       .  S
C290        O307   1.282       .  A
C290        O299   1.278       .  A
C290       C2542   1.477       .  S
O291       Ni310   1.929       .  S
O291        C297   1.271       .  A
O292       Ni310   1.912       .  S
O292        C294   1.270       .  A
Ni293       O296   1.917       .  S
Ni293       O298   1.897       .  S
C294        O304   1.275       .  A
C294       C2798   1.492       .  S
O295       Ni311   1.926       .  S
O295        C301   1.280       .  A
O296        C301   1.280       .  A
C297       C2341   1.496       .  S
O298        C300   1.264       .  A
O299       Ni310   1.917       .  S
C300        O306   1.272       .  A
C300       C2382   1.478       .  S
C301       C2501   1.497       .  S
H302        O303   0.966       .  S
O303       Ni311   1.919       .  S
O303       Ni305   1.903       .  S
O303       Ni310   1.893       .  S
O304       Ni305   1.939       .  S
Ni305       O309   1.929       .  S
Ni305       O307   1.930       .  S
O306       Ni311   1.937       .  S
C308        O309   1.270       .  A
C308       C2309   1.476       .  S
O313       Ni319   1.945       .  S
O313        C334   1.278       .  A
O314       Ni337   1.936       .  S
O314        C323   1.270       .  A
O315       Ni319   1.900       .  S
O315       Ni337   1.910       .  S
O315       Ni331   1.912       .  S
O315        H338   0.966       .  S
C316        O333   1.279       .  A
C316        O325   1.275       .  A
C316       C2213   1.478       .  S
O317       Ni336   1.910       .  S
O317        C323   1.264       .  A
O318       Ni336   1.902       .  S
O318        C320   1.266       .  A
Ni319       O322   1.919       .  S
Ni319       O324   1.918       .  S
C320        O330   1.272       .  A
C320       C2190   1.486       .  S
O321       Ni337   1.928       .  S
O321        C327   1.281       .  A
O322        C327   1.279       .  A
C323       C2117   1.482       .  S
O324        C326   1.273       .  A
O325       Ni336   1.911   1_556  S
C326        O332   1.272       .  A
C326       C2277   1.494       .  S
C327       C2254   1.489       .  S
H328        O329   0.966       .  S
O329       Ni337   1.921       .  S
O329       Ni331   1.902       .  S
O329       Ni336   1.904       .  S
O330       Ni331   1.934       .  S
Ni331       O335   1.908       .  S
Ni331       O333   1.928   1_554  S
O332       Ni337   1.926       .  S
C334        O335   1.268       .  A
C334       C2158   1.504       .  S
O339       Ni345   1.934       .  S
O339        C360   1.272       .  A
O340       Ni363   1.930       .  S
O340        C349   1.271       .  A
O341       Ni345   1.892       .  S
O341       Ni363   1.908       .  S
O341       Ni357   1.914       .  S
O341        H364   0.966       .  S
C342        O359   1.279       .  A
C342        O351   1.279       .  A
C342       C2245   1.479       .  S
O343       Ni362   1.911       .  S
O343        C349   1.264       .  A
O344       Ni362   1.906       .  S
O344        C346   1.266       .  A
Ni345       O348   1.917       .  S
Ni345       O350   1.905       .  S
C346        O356   1.271       .  A
C346       C2053   1.487       .  S
O347       Ni363   1.926       .  S
O347        C353   1.280       .  A
O348        C353   1.278       .  A
C349       C1989   1.473       .  S
O350        C352   1.268       .  A
O351       Ni362   1.922       .  S
C352        O358   1.277       .  A
C352       C2085   1.493       .  S
C353       C2222   1.475       .  S
H354        O355   0.966       .  S
O355       Ni363   1.916       .  S
O355       Ni357   1.899       .  S
O355       Ni362   1.902       .  S
O356       Ni357   1.935       .  S
Ni357       O361   1.910       .  S
Ni357       O359   1.921       .  S
O358       Ni363   1.937       .  S
C360        O361   1.269       .  A
C360       C2030   1.496       .  S
O365       Ni371   1.934       .  S
O365        C386   1.272       .  A
O366       Ni389   1.938       .  S
O366        C375   1.271       .  A
O367       Ni371   1.897       .  S
O367       Ni389   1.911       .  S
O367       Ni383   1.917       .  S
O367        H390   0.967       .  S
C368        O385   1.279       .  A
C368        O377   1.278       .  A
C368       C1925   1.494       .  S
O369       Ni388   1.901       .  S
O369        C375   1.261       .  A
O370       Ni388   1.902       .  S
O370        C372   1.266       .  A
Ni371       O374   1.922       .  S
Ni371       O376   1.906       .  S
C372        O382   1.273       .  A
C372       C2702   1.483       .  S
O373       Ni389   1.932       .  S
O373        C379   1.284       .  A
O374        C379   1.279       .  A
C375       C1893   1.484       .  S
O376        C378   1.268       .  A
O377       Ni388   1.917       .  S
C378        O384   1.274       .  A
C378       C2286   1.488       .  S
C379       C1957   1.483       .  S
H380        O381   0.967       .  S
O381       Ni389   1.930       .  S
O381       Ni383   1.903       .  S
O381       Ni388   1.906       .  S
O382       Ni383   1.938       .  S
Ni383       O387   1.914       .  S
Ni383       O385   1.929       .  S
O384       Ni389   1.931       .  S
C386        O387   1.270       .  A
C386       C3758   1.499       .  S
O391       Ni397   1.931       .  S
O391        C412   1.272       .  A
O392       Ni415   1.932       .  S
O392        C401   1.272       .  A
O393       Ni397   1.891       .  S
O393       Ni415   1.907       .  S
O393       Ni409   1.921       .  S
O393        H416   0.964       .  S
C394        O411   1.282       .  A
C394        O403   1.277       .  A
C394       C1966   1.483       .  S
O395       Ni414   1.913       .  S
O395        C401   1.265       .  A
O396       Ni414   1.898       .  S
O396        C398   1.264       .  A
Ni397       O400   1.922       .  S
Ni397       O402   1.909       .  S
C398        O408   1.272       .  A
C398       C2597   1.483       .  S
O399       Ni415   1.931       .  S
O399        C405   1.281       .  A
O400        C405   1.279       .  A
C401       C1861   1.482       .  S
O402        C404   1.269       .  A
O403       Ni414   1.920       .  S
C404        O410   1.276       .  A
C404       C2094   1.494       .  S
C405       C1934   1.476       .  S
H406        O407   0.966       .  S
O407       Ni415   1.917       .  S
O407       Ni409   1.901       .  S
O407       Ni414   1.898       .  S
O408       Ni409   1.936       .  S
Ni409       O413   1.919       .  S
Ni409       O411   1.928       .  S
O410       Ni415   1.933       .  S
C412        O413   1.272       .  A
C412       C3621   1.492       .  S
O417       Ni423   1.939       .  S
O417        C438   1.275       .  A
O418       Ni441   1.940       .  S
O418        C427   1.271       .  A
O419       Ni423   1.893       .  S
O419       Ni441   1.910       .  S
O419       Ni435   1.920       .  S
O419        H442   0.966       .  S
C420        O437   1.282       .  A
C420        O429   1.278       .  A
C420       C1797   1.493       .  S
O421       Ni440   1.900       .  S
O421        C427   1.261       .  A
O422       Ni440   1.901       .  S
O422        C424   1.266       .  A
Ni423       O426   1.925   1_554  S
Ni423       O428   1.915   1_554  S
C424        O434   1.270       .  A
C424       C1742   1.490       .  S
O425       Ni441   1.928   1_556  S
O425        C431   1.281       .  A
O426        C431   1.281       .  A
C427       C2126   1.478       .  S
O428        C430   1.271   1_556  A
O429       Ni440   1.908       .  S
C430        O436   1.277       .  A
C430       C1838   1.490   1_554  S
C431       C1765   1.491       .  S
H432        O433   0.966       .  S
O433       Ni441   1.922       .  S
O433       Ni435   1.899       .  S
O433       Ni440   1.903       .  S
O434       Ni435   1.935       .  S
Ni435       O439   1.910       .  S
Ni435       O437   1.932       .  S
O436       Ni441   1.942       .  S
C438        O439   1.270       .  A
C438       C1701   1.502       .  S
O443       Ni449   1.937       .  S
O443        C464   1.276       .  A
O444       Ni467   1.929       .  S
O444        C453   1.271       .  A
O445       Ni449   1.888       .  S
O445       Ni467   1.905       .  S
O445       Ni461   1.916       .  S
O445        H468   0.966       .  S
C446        O463   1.281       .  A
C446        O455   1.278       .  A
C446       C1774   1.478       .  S
O447       Ni466   1.913       .  S
O447        C453   1.265       .  A
O448       Ni466   1.905       .  S
O448        C450   1.265       .  A
Ni449       O452   1.922       .  S
Ni449       O454   1.910       .  S
C450        O460   1.271       .  A
C450       C1637   1.496       .  S
O451       Ni467   1.926       .  S
O451        C457   1.279       .  A
O452        C457   1.279       .  A
C453       C1998   1.475       .  S
O454        C456   1.269       .  A
O455       Ni466   1.923       .  S
C456        O462   1.279       .  A
C456       C1669   1.505       .  S
C457       C1806   1.466       .  S
H458        O459   0.966       .  S
O459       Ni467   1.921       .  S
O459       Ni461   1.901       .  S
O459       Ni466   1.905       .  S
O460       Ni461   1.933       .  S
Ni461       O465   1.911       .  S
Ni461       O463   1.926       .  S
O462       Ni467   1.941       .  S
C464        O465   1.269       .  A
C464       C1605   1.501       .  S
O469       Ni475   1.934       .  S
O469        C490   1.276       .  A
O470       Ni493   1.938       .  S
O470        C479   1.271       .  A
O471       Ni475   1.892       .  S
O471       Ni493   1.906       .  S
O471       Ni487   1.916       .  S
O471        H494   0.966       .  S
C472        O489   1.281       .  A
C472        O481   1.277       .  A
C472       C1573   1.479       .  S
O473       Ni492   1.905       .  S
O473        C479   1.261       .  A
O474       Ni492   1.901       .  S
O474        C476   1.265       .  A
Ni475       O478   1.919       .  S
Ni475       O480   1.916       .  S
C476        O486   1.273       .  A
C476       C2446   1.492       .  S
O477       Ni493   1.929       .  S
O477        C483   1.282       .  A
O478        C483   1.280       .  A
C479       C1902   1.476       .  S
O480        C482   1.272       .  A
O481       Ni492   1.914       .  S
C482        O488   1.276       .  A
C482       C1678   1.493       .  S
C483       C1541   1.489       .  S
H484        O485   0.966       .  S
O485       Ni493   1.927       .  S
O485       Ni487   1.904       .  S
O485       Ni492   1.905       .  S
O486       Ni487   1.936       .  S
Ni487       O491   1.914       .  S
Ni487       O489   1.931       .  S
O488       Ni493   1.938       .  S
C490        O491   1.269       .  A
C490       C3470   1.501       .  S
O495       Ni501   1.930       .  S
O495        C516   1.272       .  A
O496       Ni519   1.937       .  S
O496        C505   1.273       .  A
O497       Ni501   1.889       .  S
O497       Ni519   1.908       .  S
O497       Ni513   1.916       .  S
O497        H520   0.966       .  S
C498        O515   1.278       .  A
C498        O507   1.278       .  A
C498       C1550   1.474       .  S
O499       Ni518   1.907       .  S
O499        C505   1.264       .  A
O500       Ni518   1.904       .  S
O500        C502   1.265       .  A
Ni501       O504   1.912       .  S
Ni501       O506   1.908       .  S
C502        O512   1.271       .  A
C502       C2350   1.487       .  S
O503       Ni519   1.940       .  S
O503        C509   1.284       .  A
O504        C509   1.279       .  A
C505       C1870   1.478       .  S
O506        C508   1.268       .  A
O507       Ni518   1.925       .  S
C508        O514   1.277       .  A
C508       C1829   1.499       .  S
C509       C1582   1.484       .  S
H510        O511   0.966       .  S
O511       Ni519   1.925       .  S
O511       Ni513   1.900       .  S
O511       Ni518   1.904       .  S
O512       Ni513   1.934       .  S
Ni513       O517   1.913       .  S
Ni513       O515   1.919       .  S
O514       Ni519   1.937       .  S
C516        O517   1.269       .  A
C516       C3374   1.490       .  S
O521       Ni527   1.905       .  S
O521        C542   1.263       .  A
O522       Ni545   1.906       .  S
O522        C531   1.267       .  A
O523       Ni527   1.909       .  S
O523       Ni545   1.900       .  S
O523       Ni539   1.932       .  S
O523        H546   0.966       .  S
C524        O541   1.283       .  A
C524        O533   1.280       .  A
C524       C1477   1.497       .  S
O525       Ni544   1.937       .  S
O525        C531   1.275       .  A
O526       Ni544   1.915       .  S
O526        C528   1.269       .  A
Ni527       O530   1.920       .  S
Ni527       O532   1.904       .  S
C528        O538   1.272       .  A
C528       C1509   1.488       .  S
O529       Ni545   1.923       .  S
O529        C535   1.278       .  A
O530        C535   1.277       .  A
C531       C1413   1.487       .  S
O532        C534   1.267       .  A
O533       Ni544   1.923       .  S
C534        O540   1.273       .  A
C534       C1710   1.481       .  S
C535       C1454   1.480       .  S
H536        O537   0.966       .  S
O537       Ni545   1.917       .  S
O537       Ni539   1.908       .  S
O537       Ni544   1.903       .  S
O538       Ni539   1.924       .  S
Ni539       O543   1.931       .  S
Ni539       O541   1.935       .  S
O540       Ni545   1.936       .  S
C542        O543   1.268       .  A
C542       C3438   1.474       .  S
O547       Ni553   1.915       .  S
O547        C568   1.265       .  A
O548       Ni571   1.905       .  S
O548        C557   1.268       .  A
O549       Ni553   1.906       .  S
O549       Ni571   1.899       .  S
O549       Ni565   1.922       .  S
O549        H572   0.967       .  S
C550        O567   1.283       .  A
C550        O559   1.280       .  A
C550       C1445   1.484       .  S
O551       Ni570   1.933       .  S
O551        C557   1.275       .  A
O552       Ni570   1.912       .  S
O552        C554   1.269       .  A
Ni553       O556   1.928       .  S
Ni553       O558   1.900       .  S
C554        O564   1.277       .  A
C554       C1381   1.495       .  S
O555       Ni571   1.924       .  S
O555        C561   1.279       .  A
O556        C561   1.279       .  A
C557       C1349   1.492       .  S
O558        C560   1.265       .  A
O559       Ni570   1.920       .  S
C560        O566   1.274       .  A
C560       C1614   1.487       .  S
C561       C1486   1.485       .  S
H562        O563   0.966       .  S
O563       Ni571   1.912       .  S
O563       Ni565   1.897       .  S
O563       Ni570   1.889       .  S
O564       Ni565   1.947       .  S
Ni565       O569   1.921       .  S
Ni565       O567   1.930       .  S
O566       Ni571   1.945       .  S
C568        O569   1.269       .  A
C568       C3342   1.470       .  S
O573       Ni579   1.905       .  S
O573        C594   1.262       .  A
O574       Ni597   1.912       .  S
O574        C583   1.269       .  A
O575       Ni579   1.905       .  S
O575       Ni597   1.898       .  S
O575       Ni591   1.924       .  S
O575        H598   0.966       .  S
C576        O593   1.281       .  A
C576        O585   1.280       .  A
C576       C1326   1.477       .  S
O577       Ni596   1.931       .  S
O577        C583   1.271       .  A
O578       Ni596   1.909       .  S
O578        C580   1.268       .  A
Ni579       O582   1.918       .  S
Ni579       O584   1.901       .  S
C580        O590   1.272       .  A
C580       C1518   1.477       .  S
O581       Ni597   1.920       .  S
O581        C587   1.277       .  A
O582        C587   1.279       .  A
C583       C3045   1.499       .  S
O584        C586   1.266       .  A
O585       Ni596   1.920       .  S
C586        O592   1.272       .  A
C586       C2021   1.483       .  S
C587       C1285   1.496       .  S
H588        O589   0.966       .  S
O589       Ni597   1.915       .  S
O589       Ni591   1.908       .  S
O589       Ni596   1.898       .  S
O590       Ni591   1.928       .  S
Ni591       O595   1.931       .  S
Ni591       O593   1.925       .  S
O592       Ni597   1.935       .  S
C594        O595   1.268       .  A
C594       C3726   1.473       .  S
O599       Ni605   1.916       .  S
O599        C620   1.267       .  A
O600       Ni623   1.909       .  S
O600        C609   1.270       .  A
O601       Ni605   1.901       .  S
O601       Ni623   1.896       .  S
O601       Ni617   1.914       .  S
O601        H624   0.966       .  S
C602        O619   1.280       .  A
C602        O611   1.278       .  A
C602       C1294   1.471       .  S
O603       Ni622   1.935       .  S
O603        C609   1.273       .  A
O604       Ni622   1.912       .  S
O604        C606   1.272       .  A
Ni605       O608   1.921   1_556  S
Ni605       O610   1.907       .  S
C606        O616   1.276       .  A
C606       C1390   1.508       .  S
O607       Ni623   1.925   1_554  S
O607        C613   1.281       .  A
O608        C613   1.279       .  A
C609       C3173   1.497       .  S
O610        C612   1.267       .  A
O611       Ni622   1.921       .  S
C612        O618   1.273       .  A
C612       C2149   1.491       .  S
C613       C1317   1.478       .  S
H614        O615   0.966       .  S
O615       Ni623   1.916       .  S
O615       Ni617   1.905       .  S
O615       Ni622   1.894       .  S
O616       Ni617   1.940       .  S
Ni617       O621   1.925       .  S
Ni617       O619   1.925       .  S
O618       Ni623   1.938       .  S
C620        O621   1.270       .  A
C620       C3598   1.476       .  S
O625       Ni631   1.903       .  S
O625        C646   1.261       .  A
O626       Ni649   1.923       .  S
O626        C635   1.272       .  A
O627       Ni631   1.904       .  S
O627       Ni649   1.904       .  S
O627       Ni643   1.918       .  S
O627        H650   0.966       .  S
C628        O645   1.279       .  A
C628        O637   1.278       .  A
C628       C1221   1.473       .  S
O629       Ni648   1.933       .  S
O629        C635   1.271       .  A
O630       Ni648   1.906       .  S
O630        C632   1.269       .  A
Ni631       O634   1.905       .  S
Ni631       O636   1.899       .  S
C632        O642   1.271       .  A
C632       C1253   1.489       .  S
O633       Ni649   1.932       .  S
O633        C639   1.282       .  A
O634        C639   1.275       .  A
C635       C2062   1.503       .  S
O636        C638   1.266       .  A
O637       Ni648   1.926       .  S
C638        O644   1.273       .  A
C638       C3086   1.491       .  S
C639       C1189   1.475       .  S
H640        O641   0.966       .  S
O641       Ni649   1.919       .  S
O641       Ni643   1.915       .  S
O641       Ni648   1.905       .  S
O642       Ni643   1.927       .  S
Ni643       O647   1.936       .  S
Ni643       O645   1.921       .  S
O644       Ni649   1.938       .  S
C646        O647   1.269       .  A
C646       C2670   1.477       .  S
O651       Ni657   1.903       .  S
O651        C672   1.262       .  A
O652       Ni675   1.914       .  S
O652        C661   1.270       .  A
O653       Ni657   1.910       .  S
O653       Ni675   1.903       .  S
O653       Ni669   1.929       .  S
O653        H676   0.967       .  S
C654        O671   1.279       .  A
C654        O663   1.278       .  A
C654       C1198   1.468       .  S
O655       Ni674   1.928       .  S
O655        C661   1.271       .  A
O656       Ni674   1.913       .  S
O656        C658   1.270       .  A
Ni657       O660   1.911   1_556  S
Ni657       O662   1.905       .  S
C658        O668   1.275       .  A
C658       C1157   1.489       .  S
O659       Ni675   1.937   1_554  S
O659        C665   1.282       .  A
O660        C665   1.277       .  A
C661       C2181   1.492       .  S
O662        C664   1.267       .  A
O663       Ni674   1.917       .  S
C664        O670   1.271       .  A
C664       C3205   1.487       .  S
C665       C1230   1.496       .  S
H666        O667   0.966       .  S
O667       Ni675   1.920       .  S
O667       Ni669   1.907       .  S
O667       Ni674   1.900       .  S
O668       Ni669   1.937       .  S
Ni669       O673   1.927       .  S
Ni669       O671   1.921       .  S
O670       Ni675   1.935       .  S
C672        O673   1.267       .  A
C672       C2574   1.471       .  S
O677       Ni683   1.910       .  S
O677        C698   1.263       .  A
O678       Ni701   1.908       .  S
O678        C687   1.269       .  A
O679       Ni683   1.908       .  S
O679       Ni701   1.903       .  S
O679       Ni695   1.922       .  S
O679        H702   0.966       .  S
C680        O697   1.281       .  A
C680        O689   1.279       .  A
C680       C1125   1.476       .  S
O681       Ni700   1.936       .  S
O681        C687   1.276       .  A
O682       Ni700   1.914       .  S
O682        C684   1.270       .  A
Ni683       O686   1.917       .  S
Ni683       O688   1.901       .  S
C684        O694   1.272       .  A
C684       C1262   1.484       .  S
O685       Ni701   1.929       .  S
O685        C691   1.280       .  A
O686        C691   1.276       .  A
C687       C1733   1.493       .  S
O688        C690   1.268       .  A
O689       Ni700   1.921       .  S
C690        O696   1.271       .  A
C690       C1070   1.496       .  S
C691       C1102   1.477       .  S
H692        O693   0.966       .  S
O693       Ni701   1.913       .  S
O693       Ni695   1.901       .  S
O693       Ni700   1.899       .  S
O694       Ni695   1.928       .  S
Ni695       O699   1.927       .  S
Ni695       O697   1.926       .  S
O696       Ni701   1.934       .  S
C698        O699   1.267       .  A
C698       C2414   1.472       .  S
O703       Ni709   1.891       .  S
O703        C724   1.257       .  A
O704       Ni727   1.915       .  S
O704        C713   1.270       .  A
O705       Ni709   1.906       .  S
O705       Ni727   1.897       .  S
O705       Ni721   1.934       .  S
O705        H728   0.966       .  S
C706        O723   1.280       .  A
C706        O715   1.279       .  A
C706       C1093   1.480       .  S
O707       Ni726   1.932       .  S
O707        C713   1.273       .  A
O708       Ni726   1.917       .  S
O708        C710   1.270       .  A
Ni709       O712   1.914       .  S
Ni709       O714   1.893       .  S
C710        O720   1.273       .  A
C710       C1166   1.490       .  S
O711       Ni727   1.931       .  S
O711        C717   1.283       .  A
O712        C717   1.277       .  A
C713       C1646   1.490       .  S
O714        C716   1.263       .  A
O715       Ni726   1.925       .  S
C716        O722   1.271       .  A
C716       C1038   1.475       .  S
C717       C1134   1.479       .  S
H718        O719   0.966       .  S
O719       Ni727   1.923       .  S
O719       Ni721   1.912       .  S
O719       Ni726   1.901       .  S
O720       Ni721   1.931       .  S
Ni721       O725   1.937       .  S
Ni721       O723   1.925       .  S
O722       Ni727   1.937       .  S
C724        O725   1.267       .  A
C724       C2318   1.471       .  S
O729       Ni735   1.934       .  S
O729        C750   1.273       .  A
O730       Ni753   1.934       .  S
O730        C739   1.270       .  A
O731       Ni735   1.893       .  S
O731       Ni753   1.911       .  S
O731       Ni747   1.919       .  S
O731        H754   0.966       .  S
C732        O749   1.283       .  A
C732        O741   1.277       .  A
C732        C974   1.482       .  S
O733       Ni752   1.898       .  S
O733        C739   1.262       .  A
O734       Ni752   1.905       .  S
O734        C736   1.266       .  A
Ni735       O738   1.919   1_554  S
Ni735       O740   1.910       .  S
C736        O746   1.270       .  A
C736       C1422   1.478       .  S
O737       Ni753   1.925   1_556  S
O737        C743   1.280       .  A
O738        C743   1.279       .  A
C739       C3141   1.473       .  S
O740        C742   1.272       .  A
O741       Ni752   1.907       .  S
C742        O748   1.275       .  A
C742        C997   1.503       .  S
C743        C933   1.479       .  S
H744        O745   0.967       .  S
O745       Ni753   1.925       .  S
O745       Ni747   1.897       .  S
O745       Ni752   1.903       .  S
O746       Ni747   1.933       .  S
Ni747       O751   1.916       .  S
Ni747       O749   1.934       .  S
O748       Ni753   1.938       .  S
C750        O751   1.271       .  A
C750       C1061   1.494       .  S
O755       Ni761   1.936       .  S
O755        C776   1.275       .  A
O756       Ni779   1.932       .  S
O756        C765   1.269       .  A
O757       Ni761   1.892       .  S
O757       Ni779   1.905       .  S
O757       Ni773   1.913       .  S
O757        H780   0.966       .  S
C758        O775   1.282       .  A
C758        O767   1.277       .  A
C758        C942   1.479       .  S
O759       Ni778   1.904       .  S
O759        C765   1.262       .  A
O760       Ni778   1.905       .  S
O760        C762   1.267       .  A
Ni761       O764   1.916       .  S
Ni761       O766   1.912       .  S
C762        O772   1.270       .  A
C762       C1358   1.494       .  S
O763       Ni779   1.923       .  S
O763        C769   1.280       .  A
O764        C769   1.279       .  A
C765       C3013   1.472       .  S
O766        C768   1.272       .  A
O767       Ni778   1.917       .  S
C768        O774   1.275       .  A
C768        C901   1.502       .  S
C769        C965   1.470       .  S
H770        O771   0.967       .  S
O771       Ni779   1.925       .  S
O771       Ni773   1.898       .  S
O771       Ni778   1.907       .  S
O772       Ni773   1.935       .  S
Ni773       O777   1.912       .  S
Ni773       O775   1.930       .  S
O774       Ni779   1.935       .  S
C776        O777   1.270       .  A
C776       C1029   1.501       .  S
O781       Ni787   1.940       .  S
O781        C802   1.277       .  A
O782       Ni805   1.931       .  S
O782        C791   1.270       .  A
O783       Ni787   1.886       .  S
O783       Ni805   1.903       .  S
O783       Ni799   1.912       .  S
O783        H806   0.966       .  S
C784        O801   1.279       .  A
C784        O793   1.280       .  A
C784        C869   1.497       .  S
O785       Ni804   1.910       .  S
O785        C791   1.263       .  A
O786       Ni804   1.896       .  S
O786        C788   1.263       .  A
Ni787       O790   1.916       .  S
Ni787       O792   1.913       .  S
C788        O798   1.270       .  A
C788       C3493   1.483       .  S
O789       Ni805   1.931       .  S
O789        C795   1.282       .  A
O790        C795   1.280       .  A
C791       C2894   1.474       .  S
O792        C794   1.272       .  A
O793       Ni804   1.924       .  S
C794        O800   1.275       .  A
C794        C910   1.489       .  S
C795        C846   1.486       .  S
H796        O797   0.967       .  S
O797       Ni805   1.920       .  S
O797       Ni799   1.900       .  S
O797       Ni804   1.903       .  S
O798       Ni799   1.929       .  S
Ni799       O803   1.910       .  S
Ni799       O801   1.924       .  S
O800       Ni805   1.933       .  S
C802        O803   1.269       .  A
C802       C2469   1.503       .  S
O807       Ni813   1.940       .  S
O807        C828   1.277       .  A
O808       Ni831   1.928       .  S
O808        C817   1.270       .  A
O809       Ni813   1.891       .  S
O809       Ni831   1.903       .  S
O809       Ni825   1.913       .  S
O809        H832   0.967       .  S
C810        O827   1.280       .  A
C810        O819   1.278       .  A
C810        C837   1.472       .  S
O811       Ni830   1.909       .  S
O811        C817   1.265       .  A
O812       Ni830   1.908       .  S
O812        C814   1.266       .  A
Ni813       O816   1.921       .  S
Ni813       O818   1.916       .  S
C814        O824   1.273       .  A
C814       C3406   1.496       .  S
O815       Ni831   1.931       .  S
O815        C821   1.282       .  A
O816        C821   1.279       .  A
C817       C2830   1.472       .  S
O818        C820   1.272       .  A
O819       Ni830   1.922       .  S
C820        O826   1.277       .  A
C820       C1006   1.493       .  S
C821        C878   1.474       .  S
H822        O823   0.966       .  S
O823       Ni831   1.921       .  S
O823       Ni825   1.894       .  S
O823       Ni830   1.902       .  S
O824       Ni825   1.942       .  S
Ni825       O829   1.901       .  S
Ni825       O827   1.924       .  S
O826       Ni831   1.941       .  S
C828        O829   1.267       .  A
C828       C2373   1.497       .  S
C833        C834   1.400       .  A
C833        C838   1.401       .  A
C833        H843   1.085       .  S
C834        C839   1.479       .  S
C834        C835   1.410       .  A
C835        C836   1.404       .  A
C835        C840   1.507       .  S
C836        C837   1.404       .  A
C836        H841   1.084       .  S
C837        C838   1.416       .  A
C838        C842   1.507       .  S
C839        C844   1.407       .  A
C839        C848   1.403       .  A
C840        H856   1.110       .  S
C840        H857   1.111       .  S
C840        H858   1.111       .  S
C842        H853   1.110       .  S
C842        H854   1.111       .  S
C842        H855   1.104       .  S
C844        C845   1.397       .  A
C844        C849   1.508       .  S
C845        C846   1.409       .  A
C845        H850   1.084       .  S
C846        C847   1.418       .  A
C847        C848   1.407       .  A
C847        C851   1.507       .  S
C848        H852   1.084       .  S
C849        H859   1.111       .  S
C849        H860   1.110       .  S
C849        H861   1.110       .  S
C851        H862   1.110       .  S
C851        H863   1.109       .  S
C851        H864   1.111       .  S
C865        C866   1.401       .  A
C865        C870   1.408       .  A
C865        H875   1.084       .  S
C866        C871   1.481       .  S
C866        C867   1.406       .  A
C867        C868   1.401       .  A
C867        C872   1.507       .  S
C868        C869   1.412       .  A
C868        H873   1.083       .  S
C869        C870   1.422       .  A
C870        C874   1.507       .  S
C871        C876   1.411       .  A
C871        C880   1.401       .  A
C872        H888   1.110       .  S
C872        H889   1.110       .  S
C872        H890   1.111       .  S
C874        H885   1.111       .  S
C874        H886   1.109       .  S
C874        H887   1.110       .  S
C876        C877   1.403   1_554  A
C876        C881   1.506       .  S
C877        C878   1.404       .  A
C877        H882   1.085       .  S
C878        C879   1.416   1_556  A
C879        C880   1.403       .  A
C879        C883   1.507   1_554  S
C880        H884   1.084       .  S
C881        H891   1.111       .  S
C881        H892   1.110       .  S
C881        H893   1.110       .  S
C883        H894   1.110       .  S
C883        H895   1.108       .  S
C883        H896   1.111       .  S
C897        C898   1.405       .  A
C897        C902   1.414       .  A
C897        H907   1.084       .  S
C898        C903   1.492       .  S
C898        C899   1.409       .  A
C899        C900   1.403       .  A
C899        C904   1.508       .  S
C900        C901   1.411       .  A
C900        H905   1.084       .  S
C901        C902   1.422       .  A
C902        C906   1.507       .  S
C903        C908   1.409       .  A
C903        C912   1.407       .  A
C904        H920   1.110       .  S
C904        H921   1.110       .  S
C904        H922   1.111       .  S
C906        H917   1.111       .  S
C906        H918   1.109       .  S
C906        H919   1.110       .  S
C908        C909   1.403       .  A
C908        C913   1.507       .  S
C909        C910   1.409       .  A
C909        H914   1.085       .  S
C910        C911   1.417       .  A
C911        C912   1.412       .  A
C911        C915   1.506       .  S
C912        H916   1.084       .  S
C913        H923   1.111       .  S
C913        H924   1.110       .  S
C913        H925   1.110       .  S
C915        H926   1.110       .  S
C915        H927   1.106       .  S
C915        H928   1.110       .  S
C929        C930   1.403       .  A
C929        C934   1.407       .  A
C929        H939   1.084       .  S
C930        C935   1.478       .  S
C930        C931   1.407       .  A
C931        C932   1.398       .  A
C931        C936   1.508       .  S
C932        C933   1.407       .  A
C932        H937   1.085       .  S
C933        C934   1.417       .  A
C934        C938   1.507       .  S
C935        C940   1.409       .  A
C935        C944   1.399       .  A
C936        H952   1.110       .  S
C936        H953   1.110       .  S
C936        H954   1.111       .  S
C938        H949   1.110       .  S
C938        H950   1.111       .  S
C938        H951   1.106       .  S
C940        C941   1.404       .  A
C940        C945   1.506       .  S
C941        C942   1.406       .  A
C941        H946   1.084       .  S
C942        C943   1.418       .  A
C943        C944   1.401       .  A
C943        C947   1.504       .  S
C944        H948   1.085       .  S
C945        H955   1.111       .  S
C945        H956   1.110       .  S
C945        H957   1.110       .  S
C947        H958   1.111       .  S
C947        H959   1.100       .  S
C947        H960   1.110       .  S
C961        C962   1.403       .  A
C961        C966   1.405       .  A
C961        H971   1.084       .  S
C962        C967   1.474       .  S
C962        C963   1.407       .  A
C963        C964   1.396       .  A
C963        C968   1.507       .  S
C964        C965   1.404       .  A
C964        H969   1.085       .  S
C965        C966   1.415       .  A
C966        C970   1.507       .  S
C967        C972   1.407       .  A
C967        C976   1.400       .  A
C968        H984   1.110       .  S
C968        H985   1.110       .  S
C968        H986   1.111       .  S
C970        H981   1.110       .  S
C970        H982   1.111       .  S
C970        H983   1.107       .  S
C972        C973   1.400       .  A
C972        C977   1.507       .  S
C973        C974   1.408       .  A
C973        H978   1.084       .  S
C974        C975   1.417       .  A
C975        C976   1.403       .  A
C975        C979   1.504       .  S
C976        H980   1.084       .  S
C977        H987   1.111       .  S
C977        H988   1.110       .  S
C977        H989   1.110       .  S
C979        H990   1.111       .  S
C979        H991   1.110       .  S
C979        H992   1.106       .  S
C993        C994   1.406       .  A
C993        C998   1.415   1_556  A
C993       H1003   1.084   1_556  S
C994        C999   1.496       .  S
C994        C995   1.410       .  A
C995        C996   1.404       .  A
C995       C1000   1.508       .  S
C996        C997   1.411   1_556  A
C996       H1001   1.083       .  S
C997        C998   1.422       .  A
C998       C1002   1.507       .  S
C999       C1004   1.410       .  A
C999       C1008   1.408       .  A
C1000      H1016   1.110       .  S
C1000      H1017   1.110       .  S
C1000      H1018   1.111       .  S
C1002      H1013   1.111       .  S
C1002      H1014   1.109       .  S
C1002      H1015   1.111       .  S
C1004      C1005   1.405       .  A
C1004      C1009   1.507   1_556  S
C1005      C1006   1.409       .  A
C1005      H1010   1.085       .  S
C1006      C1007   1.417       .  A
C1007      C1008   1.413       .  A
C1007      C1011   1.506       .  S
C1008      H1012   1.084       .  S
C1009      H1019   1.111       .  S
C1009      H1020   1.110       .  S
C1009      H1021   1.110       .  S
C1011      H1022   1.110       .  S
C1011      H1023   1.107       .  S
C1011      H1024   1.111       .  S
C1025      C1026   1.396       .  A
C1025      C1030   1.404       .  A
C1025      H1035   1.084       .  S
C1026      C1031   1.484   1_545  S
C1026      C1027   1.410       .  A
C1027      C1028   1.406       .  A
C1027      C1032   1.507   1_545  S
C1028      C1029   1.410       .  A
C1028      H1033   1.083       .  S
C1029      C1030   1.424       .  A
C1030      C1034   1.501       .  S
C1031      C1036   1.413       .  A
C1031      C1040   1.400       .  A
C1032      H1048   1.110       .  S
C1032      H1049   1.110       .  S
C1032      H1050   1.111       .  S
C1034      H1045   1.111       .  S
C1034      H1046   1.108       .  S
C1034      H1047   1.109       .  S
C1036      C1037   1.406       .  A
C1036      C1041   1.506       .  S
C1037      C1038   1.403       .  A
C1037      H1042   1.084       .  S
C1038      C1039   1.416       .  A
C1039      C1040   1.403       .  A
C1039      C1043   1.508       .  S
C1040      H1044   1.084       .  S
C1041      H1051   1.111       .  S
C1041      H1052   1.110       .  S
C1041      H1053   1.110       .  S
C1043      H1054   1.111       .  S
C1043      H1055   1.108       .  S
C1043      H1056   1.110       .  S
C1057      C1058   1.400       .  A
C1057      C1062   1.405       .  A
C1057      H1067   1.084   1_545  S
C1058      C1063   1.484   1_545  S
C1058      C1059   1.408       .  A
C1059      C1060   1.407       .  A
C1059      C1064   1.506       .  S
C1060      C1061   1.408       .  A
C1060      H1065   1.078       .  S
C1061      C1062   1.421       .  A
C1062      C1066   1.508       .  S
C1063      C1068   1.407       .  A
C1063      C1072   1.401       .  A
C1064      H1080   1.110       .  S
C1064      H1081   1.110       .  S
C1064      H1082   1.111       .  S
C1066      H1077   1.109       .  S
C1066      H1078   1.111       .  S
C1066      H1079   1.110       .  S
C1068      C1069   1.401       .  A
C1068      C1073   1.507       .  S
C1069      C1070   1.411       .  A
C1069      H1074   1.084       .  S
C1070      C1071   1.422       .  A
C1071      C1072   1.409       .  A
C1071      C1075   1.507       .  S
C1072      H1076   1.084       .  S
C1073      H1083   1.111       .  S
C1073      H1084   1.110       .  S
C1073      H1085   1.110       .  S
C1075      H1086   1.111       .  S
C1075      H1087   1.107       .  S
C1075      H1088   1.110       .  S
C1089      C1090   1.398       .  A
C1089      C1094   1.400       .  A
C1089      H1099   1.085       .  S
C1090      C1095   1.484       .  S
C1090      C1091   1.413       .  A
C1091      C1092   1.408       .  A
C1091      C1096   1.506       .  S
C1092      C1093   1.405       .  A
C1092      H1097   1.084       .  S
C1093      C1094   1.420       .  A
C1094      C1098   1.510       .  S
C1095      C1100   1.412       .  A
C1095      C1104   1.401       .  A
C1096      H1112   1.110       .  S
C1096      H1113   1.110       .  S
C1096      H1114   1.111       .  S
C1098      H1109   1.111       .  S
C1098      H1110   1.110       .  S
C1098      H1111   1.105       .  S
C1100      C1101   1.403   1_556  A
C1100      C1105   1.507       .  S
C1101      C1102   1.403       .  A
C1101      H1106   1.084       .  S
C1102      C1103   1.417       .  A
C1103      C1104   1.404   1_554  A
C1103      C1107   1.506       .  S
C1104      H1108   1.084       .  S
C1105      H1115   1.111       .  S
C1105      H1116   1.109       .  S
C1105      H1117   1.110       .  S
C1107      H1118   1.109       .  S
C1107      H1119   1.104       .  S
C1107      H1120   1.111       .  S
C1121      C1122   1.402       .  A
C1121      C1126   1.406       .  A
C1121      H1131   1.084       .  S
C1122      C1127   1.479       .  S
C1122      C1123   1.409       .  A
C1123      C1124   1.400       .  A
C1123      C1128   1.507       .  S
C1124      C1125   1.405       .  A
C1124      H1129   1.085       .  S
C1125      C1126   1.416       .  A
C1126      C1130   1.507       .  S
C1127      C1132   1.409       .  A
C1127      C1136   1.399       .  A
C1128      H1144   1.110       .  S
C1128      H1145   1.110       .  S
C1128      H1146   1.111       .  S
C1130      H1141   1.111       .  S
C1130      H1142   1.110       .  S
C1130      H1143   1.107       .  S
C1132      C1133   1.402       .  A
C1132      C1137   1.506       .  S
C1133      C1134   1.405       .  A
C1133      H1138   1.084       .  S
C1134      C1135   1.420       .  A
C1135      C1136   1.403       .  A
C1135      C1139   1.509       .  S
C1136      H1140   1.085       .  S
C1137      H1147   1.111       .  S
C1137      H1148   1.110       .  S
C1137      H1149   1.110       .  S
C1139      H1150   1.111       .  S
C1139      H1151   1.106       .  S
C1139      H1152   1.111       .  S
C1153      C1154   1.406       .  A
C1153      C1158   1.410       .  A
C1153      H1163   1.084       .  S
C1154      C1159   1.495       .  S
C1154      C1155   1.411       .  A
C1155      C1156   1.409       .  A
C1155      C1160   1.506       .  S
C1156      C1157   1.409       .  A
C1156      H1161   1.085       .  S
C1157      C1158   1.415       .  A
C1158      C1162   1.505       .  S
C1159      C1164   1.411       .  A
C1159      C1168   1.407       .  A
C1160      H1176   1.110       .  S
C1160      H1177   1.110       .  S
C1160      H1178   1.111       .  S
C1162      H1173   1.111       .  S
C1162      H1174   1.110       .  S
C1162      H1175   1.108       .  S
C1164      C1165   1.406       .  A
C1164      C1169   1.506       .  S
C1165      C1166   1.407       .  A
C1165      H1170   1.084       .  S
C1166      C1167   1.415       .  A
C1167      C1168   1.413       .  A
C1167      C1171   1.506       .  S
C1168      H1172   1.084       .  S
C1169      H1179   1.111       .  S
C1169      H1180   1.110       .  S
C1169      H1181   1.110       .  S
C1171      H1182   1.111       .  S
C1171      H1183   1.109       .  S
C1171      H1184   1.111       .  S
C1185      C1186   1.398       .  A
C1185      C1190   1.398       .  A
C1185      H1195   1.085       .  S
C1186      C1191   1.478       .  S
C1186      C1187   1.412       .  A
C1187      C1188   1.405       .  A
C1187      C1192   1.506       .  S
C1188      C1189   1.404       .  A
C1188      H1193   1.084       .  S
C1189      C1190   1.418       .  A
C1190      C1194   1.509       .  S
C1191      C1196   1.410       .  A
C1191      C1200   1.405       .  A
C1192      H1208   1.110       .  S
C1192      H1209   1.110       .  S
C1192      H1210   1.111       .  S
C1194      H1205   1.111       .  S
C1194      H1206   1.110       .  S
C1194      H1207   1.108       .  S
C1196      C1197   1.397       .  A
C1196      C1201   1.508       .  S
C1197      C1198   1.403       .  A
C1197      H1202   1.085       .  S
C1198      C1199   1.413       .  A
C1199      C1200   1.405       .  A
C1199      C1203   1.507       .  S
C1200      H1204   1.084       .  S
C1201      H1211   1.111       .  S
C1201      H1212   1.109       .  S
C1201      H1213   1.110       .  S
C1203      H1214   1.110       .  S
C1203      H1215   1.107       .  S
C1203      H1216   1.111       .  S
C1217      C1218   1.397       .  A
C1217      C1222   1.399       .  A
C1217      H1227   1.085       .  S
C1218      C1223   1.478       .  S
C1218      C1219   1.412       .  A
C1219      C1220   1.406       .  A
C1219      C1224   1.506       .  S
C1220      C1221   1.403       .  A
C1220      H1225   1.084       .  S
C1221      C1222   1.419       .  A
C1222      C1226   1.508       .  S
C1223      C1228   1.406       .  A
C1223      C1232   1.400       .  A
C1224      H1240   1.110       .  S
C1224      H1241   1.109       .  S
C1224      H1242   1.111       .  S
C1226      H1237   1.111       .  S
C1226      H1238   1.110       .  S
C1226      H1239   1.102       .  S
C1228      C1229   1.400       .  A
C1228      C1233   1.508       .  S
C1229      C1230   1.413       .  A
C1229      H1234   1.083       .  S
C1230      C1231   1.422       .  A
C1231      C1232   1.406       .  A
C1231      C1235   1.506       .  S
C1232      H1236   1.084       .  S
C1233      H1243   1.111       .  S
C1233      H1244   1.110       .  S
C1233      H1245   1.109       .  S
C1235      H1246   1.110       .  S
C1235      H1247   1.106       .  S
C1235      H1248   1.111       .  S
C1249      C1250   1.398       .  A
C1249      C1254   1.403       .  A
C1249      H1259   1.084       .  S
C1250      C1255   1.482       .  S
C1250      C1251   1.411       .  A
C1251      C1252   1.406       .  A
C1251      C1256   1.507       .  S
C1252      C1253   1.407       .  A
C1252      H1257   1.084       .  S
C1253      C1254   1.423       .  A
C1254      C1258   1.509       .  S
C1255      C1260   1.413       .  A
C1255      C1264   1.394       .  A
C1256      H1272   1.110       .  S
C1256      H1273   1.108       .  S
C1256      H1274   1.111       .  S
C1258      H1269   1.109       .  S
C1258      H1270   1.111       .  S
C1258      H1271   1.110       .  S
C1260      C1261   1.410       .  A
C1260      C1265   1.507       .  S
C1261      C1262   1.406       .  A
C1261      H1266   1.084       .  S
C1262      C1263   1.424       .  A
C1263      C1264   1.399       .  A
C1263      C1267   1.508       .  S
C1264      H1268   1.085       .  S
C1265      H1275   1.111       .  S
C1265      H1276   1.111       .  S
C1265      H1277   1.108       .  S
C1267      H1278   1.111       .  S
C1267      H1279   1.096       .  S
C1267      H1280   1.111       .  S
C1281      C1282   1.401       .  A
C1281      C1286   1.406       .  A
C1281      H1291   1.084       .  S
C1282      C1287   1.479       .  S
C1282      C1283   1.406       .  A
C1283      C1284   1.398       .  A
C1283      C1288   1.509       .  S
C1284      C1285   1.412       .  A
C1284      H1289   1.083       .  S
C1285      C1286   1.424       .  A
C1286      C1290   1.509       .  S
C1287      C1292   1.412       .  A
C1287      C1296   1.400       .  A
C1288      H1304   1.109       .  S
C1288      H1305   1.110       .  S
C1288      H1306   1.111       .  S
C1290      H1301   1.110       .  S
C1290      H1302   1.111       .  S
C1290      H1303   1.110       .  S
C1292      C1293   1.403       .  A
C1292      C1297   1.506       .  S
C1293      C1294   1.402       .  A
C1293      H1298   1.084       .  S
C1294      C1295   1.418       .  A
C1295      C1296   1.400       .  A
C1295      C1299   1.508       .  S
C1296      H1300   1.085       .  S
C1297      H1307   1.111       .  S
C1297      H1308   1.109       .  S
C1297      H1309   1.110       .  S
C1299      H1310   1.111       .  S
C1299      H1311   1.102       .  S
C1299      H1312   1.110       .  S
C1313      C1314   1.398       .  A
C1313      C1318   1.402       .  A
C1313      H1323   1.085       .  S
C1314      C1319   1.479       .  S
C1314      C1315   1.411       .  A
C1315      C1316   1.404       .  A
C1315      C1320   1.506       .  S
C1316      C1317   1.404       .  A
C1316      H1321   1.084       .  S
C1317      C1318   1.419       .  A
C1318      C1322   1.509       .  S
C1319      C1324   1.408       .  A
C1319      C1328   1.403       .  A
C1320      H1336   1.110       .  S
C1320      H1337   1.109       .  S
C1320      H1338   1.111       .  S
C1322      H1333   1.111       .  S
C1322      H1334   1.110       .  S
C1322      H1335   1.107       .  S
C1324      C1325   1.399       .  A
C1324      C1329   1.507       .  S
C1325      C1326   1.406       .  A
C1325      H1330   1.085       .  S
C1326      C1327   1.416       .  A
C1327      C1328   1.406       .  A
C1327      C1331   1.507       .  S
C1328      H1332   1.084       .  S
C1329      H1339   1.111       .  S
C1329      H1340   1.110       .  S
C1329      H1341   1.109       .  S
C1331      H1342   1.110       .  S
C1331      H1343   1.106       .  S
C1331      H1344   1.110       .  S
C1345      C1346   1.399       .  A
C1345      C1350   1.407       .  A
C1345      H1355   1.084       .  S
C1346      C1351   1.480       .  S
C1346      C1347   1.408       .  A
C1347      C1348   1.400       .  A
C1347      C1352   1.508       .  S
C1348      C1349   1.408       .  A
C1348      H1353   1.084       .  S
C1349      C1350   1.423       .  A
C1350      C1354   1.508       .  S
C1351      C1356   1.406       .  A
C1351      C1360   1.396       .  A
C1352      H1368   1.110       .  S
C1352      H1369   1.110       .  S
C1352      H1370   1.111       .  S
C1354      H1365   1.109       .  S
C1354      H1366   1.111       .  S
C1354      H1367   1.110       .  S
C1356      C1357   1.405       .  A
C1356      C1361   1.506       .  S
C1357      C1358   1.411       .  A
C1357      H1362   1.084       .  S
C1358      C1359   1.425       .  A
C1359      C1360   1.402       .  A
C1359      C1363   1.503       .  S
C1360      H1364   1.085       .  S
C1361      H1371   1.111       .  S
C1361      H1372   1.110       .  S
C1361      H1373   1.110       .  S
C1363      H1374   1.110       .  S
C1363      H1375   1.094       .  S
C1363      H1376   1.110       .  S
C1377      C1378   1.397       .  A
C1377      C1382   1.403       .  A
C1377      H1387   1.084       .  S
C1378      C1383   1.494       .  S
C1378      C1379   1.416       .  A
C1379      C1380   1.415       .  A
C1379      C1384   1.505       .  S
C1380      C1381   1.407       .  A
C1380      H1385   1.084       .  S
C1381      C1382   1.422       .  A
C1382      C1386   1.507       .  S
C1383      C1388   1.410       .  A
C1383      C1392   1.403       .  A
C1384      H1400   1.110       .  S
C1384      H1401   1.111       .  S
C1384      H1402   1.111       .  S
C1386      H1397   1.109       .  S
C1386      H1398   1.111       .  S
C1386      H1399   1.103       .  S
C1388      C1389   1.405       .  A
C1388      C1393   1.508       .  S
C1389      C1390   1.412       .  A
C1389      H1394   1.083       .  S
C1390      C1391   1.426       .  A
C1391      C1392   1.414       .  A
C1391      C1395   1.508       .  S
C1392      H1396   1.084       .  S
C1393      H1403   1.111       .  S
C1393      H1404   1.109       .  S
C1393      H1405   1.110       .  S
C1395      H1406   1.111       .  S
C1395      H1407   1.110       .  S
C1395      H1408   1.109       .  S
C1409      C1410   1.401       .  A
C1409      C1414   1.407       .  A
C1409      H1419   1.085       .  S
C1410      C1415   1.487       .  S
C1410      C1411   1.411       .  A
C1411      C1412   1.404       .  A
C1411      C1416   1.507       .  S
C1412      C1413   1.406       .  A
C1412      H1417   1.084       .  S
C1413      C1414   1.422       .  A
C1414      C1418   1.510       .  S
C1415      C1420   1.412       .  A
C1415      C1424   1.401       .  A
C1416      H1432   1.109       .  S
C1416      H1433   1.110       .  S
C1416      H1434   1.111       .  S
C1418      H1429   1.110       .  S
C1418      H1430   1.111       .  S
C1418      H1431   1.104       .  S
C1420      C1421   1.410       .  A
C1420      C1425   1.505       .  S
C1421      C1422   1.405       .  A
C1421      H1426   1.084       .  S
C1422      C1423   1.416       .  A
C1423      C1424   1.401       .  A
C1423      C1427   1.509       .  S
C1424      H1428   1.085       .  S
C1425      H1435   1.111       .  S
C1425      H1436   1.110       .  S
C1425      H1437   1.110       .  S
C1427      H1438   1.111       .  S
C1427      H1439   1.107       .  S
C1427      H1440   1.110       .  S
C1441      C1442   1.400       .  A
C1441      C1446   1.404       .  A
C1441      H1451   1.085       .  S
C1442      C1447   1.479       .  S
C1442      C1443   1.409       .  A
C1443      C1444   1.402       .  A
C1443      C1448   1.507       .  S
C1444      C1445   1.406       .  A
C1444      H1449   1.084       .  S
C1445      C1446   1.420       .  A
C1446      C1450   1.508       .  S
C1447      C1452   1.411       .  A
C1447      C1456   1.397       .  A
C1448      H1464   1.110       .  S
C1448      H1465   1.110       .  S
C1448      H1466   1.111       .  S
C1450      H1461   1.110       .  S
C1450      H1462   1.111       .  S
C1450      H1463   1.107       .  S
C1452      C1453   1.406   1_556  A
C1452      C1457   1.506       .  S
C1453      C1454   1.406       .  A
C1453      H1458   1.084       .  S
C1454      C1455   1.420       .  A
C1455      C1456   1.400   1_554  A
C1455      C1459   1.510       .  S
C1456      H1460   1.085       .  S
C1457      H1467   1.111       .  S
C1457      H1468   1.110       .  S
C1457      H1469   1.110       .  S
C1459      H1470   1.111       .  S
C1459      H1471   1.106       .  S
C1459      H1472   1.110       .  S
C1473      C1474   1.402       .  A
C1473      C1478   1.408       .  A
C1473      H1483   1.084       .  S
C1474      C1479   1.487       .  S
C1474      C1475   1.408       .  A
C1475      C1476   1.403       .  A
C1475      C1480   1.507       .  S
C1476      C1477   1.411       .  A
C1476      H1481   1.084       .  S
C1477      C1478   1.421       .  A
C1478      C1482   1.506       .  S
C1479      C1484   1.411       .  A
C1479      C1488   1.404       .  A
C1480      H1496   1.110       .  S
C1480      H1497   1.110       .  S
C1480      H1498   1.111       .  S
C1482      H1493   1.109       .  S
C1482      H1494   1.111       .  S
C1482      H1495   1.108       .  S
C1484      C1485   1.403       .  A
C1484      C1489   1.507       .  S
C1485      C1486   1.405       .  A
C1485      H1490   1.084       .  S
C1486      C1487   1.416       .  A
C1487      C1488   1.409       .  A
C1487      C1491   1.507       .  S
C1488      H1492   1.084       .  S
C1489      H1499   1.111       .  S
C1489      H1500   1.110       .  S
C1489      H1501   1.110       .  S
C1491      H1502   1.111       .  S
C1491      H1503   1.110       .  S
C1491      H1504   1.108       .  S
C1505      C1506   1.404       .  A
C1505      C1510   1.410       .  A
C1505      H1515   1.084       .  S
C1506      C1511   1.487       .  S
C1506      C1507   1.409       .  A
C1507      C1508   1.403       .  A
C1507      C1512   1.507       .  S
C1508      C1509   1.407       .  A
C1508      H1513   1.083       .  S
C1509      C1510   1.416       .  A
C1510      C1514   1.506       .  S
C1511      C1516   1.410       .  A
C1511      C1520   1.406       .  A
C1512      H1528   1.110       .  S
C1512      H1529   1.110       .  S
C1512      H1530   1.111       .  S
C1514      H1525   1.111       .  S
C1514      H1526   1.108       .  S
C1514      H1527   1.111       .  S
C1516      C1517   1.404       .  A
C1516      C1521   1.506       .  S
C1517      C1518   1.406       .  A
C1517      H1522   1.085       .  S
C1518      C1519   1.413       .  A
C1519      C1520   1.408       .  A
C1519      C1523   1.505       .  S
C1520      H1524   1.084       .  S
C1521      H1531   1.111       .  S
C1521      H1532   1.110       .  S
C1521      H1533   1.110       .  S
C1523      H1534   1.110       .  S
C1523      H1535   1.109       .  S
C1523      H1536   1.111       .  S
C1537      C1538   1.400       .  A
C1537      C1542   1.405       .  A
C1537      H1547   1.084       .  S
C1538      C1543   1.478       .  S
C1538      C1539   1.407       .  A
C1539      C1540   1.402       .  A
C1539      C1544   1.507       .  S
C1540      C1541   1.410       .  A
C1540      H1545   1.084       .  S
C1541      C1542   1.420       .  A
C1542      C1546   1.508       .  S
C1543      C1548   1.411       .  A
C1543      C1552   1.398       .  A
C1544      H1560   1.110       .  S
C1544      H1561   1.110       .  S
C1544      H1562   1.111       .  S
C1546      H1557   1.111       .  S
C1546      H1558   1.110       .  S
C1546      H1559   1.111       .  S
C1548      C1549   1.405       .  A
C1548      C1553   1.506       .  S
C1549      C1550   1.403       .  A
C1549      H1554   1.084       .  S
C1550      C1551   1.418       .  A
C1551      C1552   1.400       .  A
C1551      C1555   1.509       .  S
C1552      H1556   1.085       .  S
C1553      H1563   1.111       .  S
C1553      H1564   1.110       .  S
C1553      H1565   1.110       .  S
C1555      H1566   1.110       .  S
C1555      H1567   1.106       .  S
C1555      H1568   1.111       .  S
C1569      C1570   1.398       .  A
C1569      C1574   1.400       .  A
C1569      H1579   1.084       .  S
C1570      C1575   1.483       .  S
C1570      C1571   1.414       .  A
C1571      C1572   1.408       .  A
C1571      C1576   1.506       .  S
C1572      C1573   1.404       .  A
C1572      H1577   1.084       .  S
C1573      C1574   1.419       .  A
C1574      C1578   1.510       .  S
C1575      C1580   1.410       .  A
C1575      C1584   1.403       .  A
C1576      H1592   1.110       .  S
C1576      H1593   1.111       .  S
C1576      H1594   1.111       .  S
C1578      H1589   1.111       .  S
C1578      H1590   1.109       .  S
C1578      H1591   1.111       .  S
C1580      C1581   1.401   1_554  A
C1580      C1585   1.508       .  S
C1581      C1582   1.406       .  A
C1581      H1586   1.084       .  S
C1582      C1583   1.418       .  A
C1583      C1584   1.408   1_556  A
C1583      C1587   1.507       .  S
C1584      H1588   1.084       .  S
C1585      H1595   1.111       .  S
C1585      H1596   1.109       .  S
C1585      H1597   1.110       .  S
C1587      H1598   1.110       .  S
C1587      H1599   1.110       .  S
C1587      H1600   1.111       .  S
C1601      C1602   1.401   1_565  A
C1601      C1606   1.410       .  A
C1601      H1611   1.084       .  S
C1602      C1607   1.490       .  S
C1602      C1603   1.410       .  A
C1603      C1604   1.405   1_545  A
C1603      C1608   1.507       .  S
C1604      C1605   1.410       .  A
C1604      H1609   1.083       .  S
C1605      C1606   1.426       .  A
C1606      C1610   1.509       .  S
C1607      C1612   1.413       .  A
C1607      C1616   1.401       .  A
C1608      H1624   1.110       .  S
C1608      H1625   1.110       .  S
C1608      H1626   1.111       .  S
C1610      H1621   1.111       .  S
C1610      H1622   1.110       .  S
C1610      H1623   1.110       .  S
C1612      C1613   1.409       .  A
C1612      C1617   1.506       .  S
C1613      C1614   1.405       .  A
C1613      H1618   1.084       .  S
C1614      C1615   1.420       .  A
C1615      C1616   1.405       .  A
C1615      C1619   1.509       .  S
C1616      H1620   1.085       .  S
C1617      H1627   1.111       .  S
C1617      H1628   1.110       .  S
C1617      H1629   1.110       .  S
C1619      H1630   1.111       .  S
C1619      H1631   1.107       .  S
C1619      H1632   1.110       .  S
C1633      C1634   1.400       .  A
C1633      C1638   1.406       .  A
C1633      H1643   1.084       .  S
C1634      C1639   1.487       .  S
C1634      C1635   1.410       .  A
C1635      C1636   1.406       .  A
C1635      C1640   1.506       .  S
C1636      C1637   1.410       .  A
C1636      H1641   1.084       .  S
C1637      C1638   1.423       .  A
C1638      C1642   1.508       .  S
C1639      C1644   1.412       .  A
C1639      C1648   1.400       .  A
C1640      H1656   1.110       .  S
C1640      H1657   1.110       .  S
C1640      H1658   1.111       .  S
C1642      H1653   1.110       .  S
C1642      H1654   1.111       .  S
C1642      H1655   1.109       .  S
C1644      C1645   1.410       .  A
C1644      C1649   1.505       .  S
C1645      C1646   1.408       .  A
C1645      H1650   1.084       .  S
C1646      C1647   1.420       .  A
C1647      C1648   1.403       .  A
C1647      C1651   1.508       .  S
C1648      H1652   1.084       .  S
C1649      H1659   1.111       .  S
C1649      H1660   1.110       .  S
C1649      H1661   1.110       .  S
C1651      H1662   1.109       .  S
C1651      H1663   1.110       .  S
C1651      H1664   1.111       .  S
C1665      C1666   1.396       .  A
C1665      C1670   1.406       .  A
C1665      H1675   1.084       .  S
C1666      C1671   1.491       .  S
C1666      C1667   1.412       .  A
C1667      C1668   1.412       .  A
C1667      C1672   1.505       .  S
C1668      C1669   1.410       .  A
C1668      H1673   1.084       .  S
C1669      C1670   1.431       .  A
C1670      C1674   1.511       .  S
C1671      C1676   1.414       .  A
C1671      C1680   1.396       .  A
C1672      H1688   1.110       .  S
C1672      H1689   1.110       .  S
C1672      H1690   1.111       .  S
C1674      H1685   1.111       .  S
C1674      H1686   1.110       .  S
C1674      H1687   1.109       .  S
C1676      C1677   1.414       .  A
C1676      C1681   1.505       .  S
C1677      C1678   1.408       .  A
C1677      H1682   1.084       .  S
C1678      C1679   1.425       .  A
C1679      C1680   1.402       .  A
C1679      C1683   1.510       .  S
C1680      H1684   1.085       .  S
C1681      H1691   1.111       .  S
C1681      H1692   1.110       .  S
C1681      H1693   1.110       .  S
C1683      H1694   1.110       .  S
C1683      H1695   1.100       .  S
C1683      H1696   1.111       .  S
C1697      C1698   1.399       .  A
C1697      C1702   1.406   1_545  A
C1697      H1707   1.084       .  S
C1698      C1703   1.486       .  S
C1698      C1699   1.408   1_545  A
C1699      C1700   1.407       .  A
C1699      C1704   1.506       .  S
C1700      C1701   1.413       .  A
C1700      H1705   1.083       .  S
C1701      C1702   1.425       .  A
C1702      C1706   1.508       .  S
C1703      C1708   1.411       .  A
C1703      C1712   1.401       .  A
C1704      H1720   1.110   1_565  S
C1704      H1721   1.109   1_565  S
C1704      H1722   1.111       .  S
C1706      H1717   1.111       .  S
C1706      H1718   1.110       .  S
C1706      H1719   1.110       .  S
C1708      C1709   1.407       .  A
C1708      C1713   1.506       .  S
C1709      C1710   1.406       .  A
C1709      H1714   1.084       .  S
C1710      C1711   1.420       .  A
C1711      C1712   1.405       .  A
C1711      C1715   1.510       .  S
C1712      H1716   1.085       .  S
C1713      H1723   1.111       .  S
C1713      H1724   1.110       .  S
C1713      H1725   1.109       .  S
C1715      H1726   1.111       .  S
C1715      H1727   1.104       .  S
C1715      H1728   1.110       .  S
C1729      C1730   1.401       .  A
C1729      C1734   1.407       .  A
C1729      H1739   1.084       .  S
C1730      C1735   1.486       .  S
C1730      C1731   1.410       .  A
C1731      C1732   1.404       .  A
C1731      C1736   1.507       .  S
C1732      C1733   1.408       .  A
C1732      H1737   1.084       .  S
C1733      C1734   1.421       .  A
C1734      C1738   1.507       .  S
C1735      C1740   1.409       .  A
C1735      C1744   1.402       .  A
C1736      H1752   1.110       .  S
C1736      H1753   1.110       .  S
C1736      H1754   1.111       .  S
C1738      H1749   1.111       .  S
C1738      H1750   1.109       .  S
C1738      H1751   1.110       .  S
C1740      C1741   1.403       .  A
C1740      C1745   1.507       .  S
C1741      C1742   1.407       .  A
C1741      H1746   1.084       .  S
C1742      C1743   1.420       .  A
C1743      C1744   1.408       .  A
C1743      C1747   1.507       .  S
C1744      H1748   1.084       .  S
C1745      H1755   1.111       .  S
C1745      H1756   1.110       .  S
C1745      H1757   1.110       .  S
C1747      H1758   1.110       .  S
C1747      H1759   1.110       .  S
C1747      H1760   1.111       .  S
C1761      C1762   1.400       .  A
C1761      C1766   1.406       .  A
C1761      H1771   1.084       .  S
C1762      C1767   1.483       .  S
C1762      C1763   1.408       .  A
C1763      C1764   1.403       .  A
C1763      C1768   1.507       .  S
C1764      C1765   1.409       .  A
C1764      H1769   1.084       .  S
C1765      C1766   1.421       .  A
C1766      C1770   1.508       .  S
C1767      C1772   1.413       .  A
C1767      C1776   1.398       .  A
C1768      H1784   1.110       .  S
C1768      H1785   1.110       .  S
C1768      H1786   1.111       .  S
C1770      H1781   1.111       .  S
C1770      H1782   1.110       .  S
C1770      H1783   1.110       .  S
C1772      C1773   1.407       .  A
C1772      C1777   1.506       .  S
C1773      C1774   1.403       .  A
C1773      H1778   1.084       .  S
C1774      C1775   1.420       .  A
C1775      C1776   1.401       .  A
C1775      C1779   1.510       .  S
C1776      H1780   1.085       .  S
C1777      H1787   1.111       .  S
C1777      H1788   1.110       .  S
C1777      H1789   1.110       .  S
C1779      H1790   1.110       .  S
C1779      H1791   1.106       .  S
C1779      H1792   1.111       .  S
C1793      C1794   1.403       .  A
C1793      C1798   1.409       .  A
C1793      H1803   1.084       .  S
C1794      C1799   1.477       .  S
C1794      C1795   1.404       .  A
C1795      C1796   1.396       .  A
C1795      C1800   1.509       .  S
C1796      C1797   1.412       .  A
C1796      H1801   1.083       .  S
C1797      C1798   1.421       .  A
C1798      C1802   1.508       .  S
C1799      C1804   1.410       .  A
C1799      C1808   1.403       .  A
C1800      H1816   1.110       .  S
C1800      H1817   1.108       .  S
C1800      H1818   1.111       .  S
C1802      H1813   1.110       .  S
C1802      H1814   1.111       .  S
C1802      H1815   1.109       .  S
C1804      C1805   1.400       .  A
C1804      C1809   1.508       .  S
C1805      C1806   1.402       .  A
C1805      H1810   1.084       .  S
C1806      C1807   1.411       .  A
C1807      C1808   1.403       .  A
C1807      C1811   1.506       .  S
C1808      H1812   1.084       .  S
C1809      H1819   1.111       .  S
C1809      H1820   1.110       .  S
C1809      H1821   1.109       .  S
C1811      H1822   1.110       .  S
C1811      H1823   1.109       .  S
C1811      H1824   1.111       .  S
C1825      C1826   1.400       .  A
C1825      C1830   1.406       .  A
C1825      H1835   1.084       .  S
C1826      C1831   1.489       .  S
C1826      C1827   1.411       .  A
C1827      C1828   1.409       .  A
C1827      C1832   1.506       .  S
C1828      C1829   1.410       .  A
C1828      H1833   1.084       .  S
C1829      C1830   1.425       .  A
C1830      C1834   1.510       .  S
C1831      C1836   1.415       .  A
C1831      C1840   1.396       .  A
C1832      H1848   1.110       .  S
C1832      H1849   1.108       .  S
C1832      H1850   1.111       .  S
C1834      H1845   1.111       .  S
C1834      H1846   1.110       .  S
C1834      H1847   1.109       .  S
C1836      C1837   1.414   1_556  A
C1836      C1841   1.506   1_556  S
C1837      C1838   1.407   1_554  A
C1837      H1842   1.084       .  S
C1838      C1839   1.424       .  A
C1839      C1840   1.400       .  A
C1839      C1843   1.508       .  S
C1840      H1844   1.085       .  S
C1841      H1851   1.111       .  S
C1841      H1852   1.110       .  S
C1841      H1853   1.108       .  S
C1843      H1854   1.110       .  S
C1843      H1855   1.098       .  S
C1843      H1856   1.111       .  S
C1857      C1858   1.404       .  A
C1857      C1862   1.412       .  A
C1857      H1867   1.084       .  S
C1858      C1863   1.488       .  S
C1858      C1859   1.412       .  A
C1859      C1860   1.402       .  A
C1859      C1864   1.508       .  S
C1860      C1861   1.404       .  A
C1860      H1865   1.084       .  S
C1861      C1862   1.416       .  A
C1862      C1866   1.506       .  S
C1863      C1868   1.409       .  A
C1863      C1872   1.406       .  A
C1864      H1880   1.110       .  S
C1864      H1881   1.110       .  S
C1864      H1882   1.111       .  S
C1866      H1877   1.111       .  S
C1866      H1878   1.111       .  S
C1866      H1879   1.110       .  S
C1868      C1869   1.405       .  A
C1868      C1873   1.506       .  S
C1869      C1870   1.407       .  A
C1869      H1874   1.085       .  S
C1870      C1871   1.412       .  A
C1871      C1872   1.408       .  A
C1871      C1875   1.505       .  S
C1872      H1876   1.084       .  S
C1873      H1883   1.111       .  S
C1873      H1884   1.110       .  S
C1873      H1885   1.110       .  S
C1875      H1886   1.110       .  S
C1875      H1887   1.108       .  S
C1875      H1888   1.110       .  S
C1889      C1890   1.403       .  A
C1889      C1894   1.409       .  A
C1889      H1899   1.084       .  S
C1890      C1895   1.491       .  S
C1890      C1891   1.412       .  A
C1891      C1892   1.404       .  A
C1891      C1896   1.508       .  S
C1892      C1893   1.405       .  A
C1892      H1897   1.084       .  S
C1893      C1894   1.421       .  A
C1894      C1898   1.508       .  S
C1895      C1900   1.411       .  A
C1895      C1904   1.406       .  A
C1896      H1912   1.109       .  S
C1896      H1913   1.110       .  S
C1896      H1914   1.111       .  S
C1898      H1909   1.111       .  S
C1898      H1910   1.110       .  S
C1898      H1911   1.104       .  S
C1900      C1901   1.406       .  A
C1900      C1905   1.506       .  S
C1901      C1902   1.405       .  A
C1901      H1906   1.084       .  S
C1902      C1903   1.413       .  A
C1903      C1904   1.407       .  A
C1903      C1907   1.506       .  S
C1904      H1908   1.084       .  S
C1905      H1915   1.111       .  S
C1905      H1916   1.110       .  S
C1905      H1917   1.111       .  S
C1907      H1918   1.110       .  S
C1907      H1919   1.109       .  S
C1907      H1920   1.110       .  S
C1921      C1922   1.402       .  A
C1921      C1926   1.409       .  A
C1921      H1931   1.084       .  S
C1922      C1927   1.482       .  S
C1922      C1923   1.407       .  A
C1923      C1924   1.400       .  A
C1923      C1928   1.507       .  S
C1924      C1925   1.410       .  A
C1924      H1929   1.084       .  S
C1925      C1926   1.421       .  A
C1926      C1930   1.508       .  S
C1927      C1932   1.410       .  A
C1927      C1936   1.403       .  A
C1928      H1944   1.110       .  S
C1928      H1945   1.110       .  S
C1928      H1946   1.111       .  S
C1930      H1941   1.111       .  S
C1930      H1942   1.110       .  S
C1930      H1943   1.110       .  S
C1932      C1933   1.403       .  A
C1932      C1937   1.506       .  S
C1933      C1934   1.404       .  A
C1933      H1938   1.085       .  S
C1934      C1935   1.415       .  A
C1935      C1936   1.405       .  A
C1935      C1939   1.507       .  S
C1936      H1940   1.084       .  S
C1937      H1947   1.111       .  S
C1937      H1948   1.110       .  S
C1937      H1949   1.110       .  S
C1939      H1950   1.110       .  S
C1939      H1951   1.108       .  S
C1939      H1952   1.111       .  S
C1953      C1954   1.398       .  A
C1953      C1958   1.403       .  A
C1953      H1963   1.084       .  S
C1954      C1959   1.482       .  S
C1954      C1955   1.412       .  A
C1955      C1956   1.406       .  A
C1955      C1960   1.506       .  S
C1956      C1957   1.404       .  A
C1956      H1961   1.084       .  S
C1957      C1958   1.421       .  A
C1958      C1962   1.510       .  S
C1959      C1964   1.411       .  A
C1959      C1968   1.398       .  A
C1960      H1976   1.110       .  S
C1960      H1977   1.110       .  S
C1960      H1978   1.111       .  S
C1962      H1973   1.109       .  S
C1962      H1974   1.111       .  S
C1962      H1975   1.110       .  S
C1964      C1965   1.406   1_554  A
C1964      C1969   1.506       .  S
C1965      C1966   1.406       .  A
C1965      H1970   1.084       .  S
C1966      C1967   1.420       .  A
C1967      C1968   1.403   1_556  A
C1967      C1971   1.509       .  S
C1968      H1972   1.084       .  S
C1969      H1979   1.111       .  S
C1969      H1980   1.110       .  S
C1969      H1981   1.110       .  S
C1971      H1982   1.111       .  S
C1971      H1983   1.110       .  S
C1971      H1984   1.109       .  S
C1985      C1986   1.404       .  A
C1985      C1990   1.404       .  A
C1985      H1995   1.084       .  S
C1986      C1991   1.486       .  S
C1986      C1987   1.410       .  A
C1987      C1988   1.407       .  A
C1987      C1992   1.505       .  S
C1988      C1989   1.405       .  A
C1988      H1993   1.084       .  S
C1989      C1990   1.412       .  A
C1990      C1994   1.507       .  S
C1991      C1996   1.412       .  A
C1991      C2000   1.401       .  A
C1992      H2008   1.110       .  S
C1992      H2009   1.110       .  S
C1992      H2010   1.111       .  S
C1994      H2005   1.110       .  S
C1994      H2006   1.110       .  S
C1994      H2007   1.109       .  S
C1996      C1997   1.404       .  A
C1996      C2001   1.507       .  S
C1997      C1998   1.403       .  A
C1997      H2002   1.084       .  S
C1998      C1999   1.417       .  A
C1999      C2000   1.407       .  A
C1999      C2003   1.507       .  S
C2000      H2004   1.084       .  S
C2001      H2011   1.111       .  S
C2001      H2012   1.110       .  S
C2001      H2013   1.110       .  S
C2003      H2014   1.110       .  S
C2003      H2015   1.107       .  S
C2003      H2016   1.110       .  S
C2017      C2018   1.403       .  A
C2017      C2022   1.406       .  A
C2017      H2027   1.084       .  S
C2018      C2023   1.486       .  S
C2018      C2019   1.411       .  A
C2019      C2020   1.405       .  A
C2019      C2024   1.506       .  S
C2020      C2021   1.406       .  A
C2020      H2025   1.084       .  S
C2021      C2022   1.416       .  A
C2022      C2026   1.508       .  S
C2023      C2028   1.409       .  A
C2023      C2032   1.400       .  A
C2024      H2040   1.110       .  S
C2024      H2041   1.110       .  S
C2024      H2042   1.111       .  S
C2026      H2037   1.110       .  S
C2026      H2038   1.111       .  S
C2026      H2039   1.111       .  S
C2028      C2029   1.406       .  A
C2028      C2033   1.506       .  S
C2029      C2030   1.410       .  A
C2029      H2034   1.084       .  S
C2030      C2031   1.423       .  A
C2031      C2032   1.405       .  A
C2031      C2035   1.509       .  S
C2032      H2036   1.084       .  S
C2033      H2043   1.111       .  S
C2033      H2044   1.110       .  S
C2033      H2045   1.110       .  S
C2035      H2046   1.110       .  S
C2035      H2047   1.110       .  S
C2035      H2048   1.111       .  S
C2049      C2050   1.403       .  A
C2049      C2054   1.408       .  A
C2049      H2059   1.084       .  S
C2050      C2055   1.490       .  S
C2050      C2051   1.412       .  A
C2051      C2052   1.406       .  A
C2051      C2056   1.506       .  S
C2052      C2053   1.405       .  A
C2052      H2057   1.083       .  S
C2053      C2054   1.418       .  A
C2054      C2058   1.508       .  S
C2055      C2060   1.410       .  A
C2055      C2064   1.398       .  A
C2056      H2072   1.110       .  S
C2056      H2073   1.110       .  S
C2056      H2074   1.111       .  S
C2058      H2069   1.111       .  S
C2058      H2070   1.109       .  S
C2058      H2071   1.111       .  S
C2060      C2061   1.410       .  A
C2060      C2065   1.505       .  S
C2061      C2062   1.411       .  A
C2061      H2066   1.084       .  S
C2062      C2063   1.427       .  A
C2063      C2064   1.406       .  A
C2063      C2067   1.509       .  S
C2064      H2068   1.084       .  S
C2065      H2075   1.111       .  S
C2065      H2076   1.110       .  S
C2065      H2077   1.110       .  S
C2067      H2078   1.110       .  S
C2067      H2079   1.110       .  S
C2067      H2080   1.111       .  S
C2081      C2082   1.397       .  A
C2081      C2086   1.403       .  A
C2081      H2091   1.084       .  S
C2082      C2087   1.486       .  S
C2082      C2083   1.412       .  A
C2083      C2084   1.409       .  A
C2083      C2088   1.505       .  S
C2084      C2085   1.407       .  A
C2084      H2089   1.084       .  S
C2085      C2086   1.426       .  A
C2086      C2090   1.511       .  S
C2087      C2092   1.411       .  A
C2087      C2096   1.397       .  A
C2088      H2104   1.110       .  S
C2088      H2105   1.110       .  S
C2088      H2106   1.111       .  S
C2090      H2101   1.111       .  S
C2090      H2102   1.109       .  S
C2090      H2103   1.109       .  S
C2092      C2093   1.408       .  A
C2092      C2097   1.506       .  S
C2093      C2094   1.408       .  A
C2093      H2098   1.084       .  S
C2094      C2095   1.426       .  A
C2095      C2096   1.404       .  A
C2095      C2099   1.510       .  S
C2096      H2100   1.084       .  S
C2097      H2107   1.111       .  S
C2097      H2108   1.110       .  S
C2097      H2109   1.110       .  S
C2099      H2110   1.109       .  S
C2099      H2111   1.110       .  S
C2099      H2112   1.111       .  S
C2113      C2114   1.402       .  A
C2113      C2118   1.402       .  A
C2113      H2123   1.085       .  S
C2114      C2119   1.490       .  S
C2114      C2115   1.413       .  A
C2115      C2116   1.412       .  A
C2115      C2120   1.505       .  S
C2116      C2117   1.407       .  A
C2116      H2121   1.084       .  S
C2117      C2118   1.415       .  A
C2118      C2122   1.507       .  S
C2119      C2124   1.416       .  A
C2119      C2128   1.400       .  A
C2120      H2136   1.110       .  S
C2120      H2137   1.110       .  S
C2120      H2138   1.111       .  S
C2122      H2133   1.110       .  S
C2122      H2134   1.111       .  S
C2122      H2135   1.109       .  S
C2124      C2125   1.409       .  A
C2124      C2129   1.506       .  S
C2125      C2126   1.401       .  A
C2125      H2130   1.084   1_554  S
C2126      C2127   1.418       .  A
C2127      C2128   1.405       .  A
C2127      C2131   1.507       .  S
C2128      H2132   1.084       .  S
C2129      H2139   1.111   1_554  S
C2129      H2140   1.109       .  S
C2129      H2141   1.110   1_554  S
C2131      H2142   1.111       .  S
C2131      H2143   1.107       .  S
C2131      H2144   1.110       .  S
C2145      C2146   1.401       .  A
C2145      C2150   1.406       .  A
C2145      H2155   1.084       .  S
C2146      C2151   1.490   1_556  S
C2146      C2147   1.412   1_556  A
C2147      C2148   1.408   1_554  A
C2147      C2152   1.506       .  S
C2148      C2149   1.407       .  A
C2148      H2153   1.084   1_556  S
C2149      C2150   1.420       .  A
C2150      C2154   1.508       .  S
C2151      C2156   1.410       .  A
C2151      C2160   1.400   1_554  A
C2152      H2168   1.110       .  S
C2152      H2169   1.110       .  S
C2152      H2170   1.111       .  S
C2154      H2165   1.110       .  S
C2154      H2166   1.111       .  S
C2154      H2167   1.108       .  S
C2156      C2157   1.406       .  A
C2156      C2161   1.507       .  S
C2157      C2158   1.410       .  A
C2157      H2162   1.083       .  S
C2158      C2159   1.426       .  A
C2159      C2160   1.411   1_554  A
C2159      C2163   1.509   1_554  S
C2160      H2164   1.084       .  S
C2161      H2171   1.111       .  S
C2161      H2172   1.110       .  S
C2161      H2173   1.110       .  S
C2163      H2174   1.110       .  S
C2163      H2175   1.110       .  S
C2163      H2176   1.111       .  S
C2177      C2178   1.399       .  A
C2177      C2182   1.406       .  A
C2177      H2187   1.084       .  S
C2178      C2183   1.484   1_556  S
C2178      C2179   1.410   1_556  A
C2179      C2180   1.406       .  A
C2179      C2184   1.506       .  S
C2180      C2181   1.408   1_554  A
C2180      H2185   1.083       .  S
C2181      C2182   1.423       .  A
C2182      C2186   1.509       .  S
C2183      C2188   1.411       .  A
C2183      C2192   1.399       .  A
C2184      H2200   1.110       .  S
C2184      H2201   1.110       .  S
C2184      H2202   1.111       .  S
C2186      H2197   1.110       .  S
C2186      H2198   1.111       .  S
C2186      H2199   1.110       .  S
C2188      C2189   1.407       .  A
C2188      C2193   1.506   1_554  S
C2189      C2190   1.408       .  A
C2189      H2194   1.084       .  S
C2190      C2191   1.419       .  A
C2191      C2192   1.402       .  A
C2191      C2195   1.509       .  S
C2192      H2196   1.085       .  S
C2193      H2203   1.111       .  S
C2193      H2204   1.110       .  S
C2193      H2205   1.110       .  S
C2195      H2206   1.110       .  S
C2195      H2207   1.107       .  S
C2195      H2208   1.111       .  S
C2209      C2210   1.396       .  A
C2209      C2214   1.398       .  A
C2209      H2219   1.084       .  S
C2210      C2215   1.478       .  S
C2210      C2211   1.413       .  A
C2211      C2212   1.407       .  A
C2211      C2216   1.506       .  S
C2212      C2213   1.404       .  A
C2212      H2217   1.084       .  S
C2213      C2214   1.419       .  A
C2214      C2218   1.510       .  S
C2215      C2220   1.409       .  A
C2215      C2224   1.400       .  A
C2216      H2232   1.110       .  S
C2216      H2233   1.110       .  S
C2216      H2234   1.111       .  S
C2218      H2229   1.111       .  S
C2218      H2230   1.109       .  S
C2218      H2231   1.111       .  S
C2220      C2221   1.401       .  A
C2220      C2225   1.507       .  S
C2221      C2222   1.405       .  A
C2221      H2226   1.084       .  S
C2222      C2223   1.421       .  A
C2223      C2224   1.402       .  A
C2223      C2227   1.510       .  S
C2224      H2228   1.085       .  S
C2225      H2235   1.111       .  S
C2225      H2236   1.109       .  S
C2225      H2237   1.110       .  S
C2227      H2238   1.110       .  S
C2227      H2239   1.103       .  S
C2227      H2240   1.111       .  S
C2241      C2242   1.403       .  A
C2241      C2246   1.404       .  A
C2241      H2251   1.084       .  S
C2242      C2247   1.482       .  S
C2242      C2243   1.410       .  A
C2243      C2244   1.403       .  A
C2243      C2248   1.507       .  S
C2244      C2245   1.406       .  A
C2244      H2249   1.084       .  S
C2245      C2246   1.415       .  A
C2246      C2250   1.507       .  S
C2247      C2252   1.406       .  A
C2247      C2256   1.404       .  A
C2248      H2264   1.109       .  S
C2248      H2265   1.111       .  S
C2248      H2266   1.111       .  S
C2250      H2261   1.110       .  S
C2250      H2262   1.111       .  S
C2250      H2263   1.109       .  S
C2252      C2253   1.399       .  A
C2252      C2257   1.508       .  S
C2253      C2254   1.410       .  A
C2253      H2258   1.084       .  S
C2254      C2255   1.417       .  A
C2255      C2256   1.408       .  A
C2255      C2259   1.506       .  S
C2256      H2260   1.084       .  S
C2257      H2267   1.111       .  S
C2257      H2268   1.109       .  S
C2257      H2269   1.110       .  S
C2259      H2270   1.110       .  S
C2259      H2271   1.110       .  S
C2259      H2272   1.111       .  S
C2273      C2274   1.398       .  A
C2273      C2278   1.405       .  A
C2273      H2283   1.084       .  S
C2274      C2279   1.491       .  S
C2274      C2275   1.414       .  A
C2275      C2276   1.409       .  A
C2275      C2280   1.506       .  S
C2276      C2277   1.406       .  A
C2276      H2281   1.084       .  S
C2277      C2278   1.425       .  A
C2278      C2282   1.508       .  S
C2279      C2284   1.412       .  A
C2279      C2288   1.405       .  A
C2280      H2296   1.109       .  S
C2280      H2297   1.111       .  S
C2280      H2298   1.111       .  S
C2282      H2293   1.111       .  S
C2282      H2294   1.108       .  S
C2282      H2295   1.109       .  S
C2284      C2285   1.404       .  A
C2284      C2289   1.507       .  S
C2285      C2286   1.407       .  A
C2285      H2290   1.084       .  S
C2286      C2287   1.417       .  A
C2287      C2288   1.409       .  A
C2287      C2291   1.507       .  S
C2288      H2292   1.084       .  S
C2289      H2299   1.111       .  S
C2289      H2300   1.109       .  S
C2289      H2301   1.110       .  S
C2291      H2302   1.111       .  S
C2291      H2303   1.109       .  S
C2291      H2304   1.110       .  S
C2305      C2306   1.400       .  A
C2305      C2310   1.401       .  A
C2305      H2315   1.085       .  S
C2306      C2311   1.481       .  S
C2306      C2307   1.410       .  A
C2307      C2308   1.408       .  A
C2307      C2312   1.505       .  S
C2308      C2309   1.405       .  A
C2308      H2313   1.084       .  S
C2309      C2310   1.416       .  A
C2310      C2314   1.508       .  S
C2311      C2316   1.408       .  A
C2311      C2320   1.406       .  A
C2312      H2328   1.110       .  S
C2312      H2329   1.110       .  S
C2312      H2330   1.111       .  S
C2314      H2325   1.111       .  S
C2314      H2326   1.110       .  S
C2314      H2327   1.109       .  S
C2316      C2317   1.400       .  A
C2316      C2321   1.507       .  S
C2317      C2318   1.405       .  A
C2317      H2322   1.085       .  S
C2318      C2319   1.411       .  A
C2319      C2320   1.407       .  A
C2319      C2323   1.505       .  S
C2320      H2324   1.084       .  S
C2321      H2331   1.111       .  S
C2321      H2332   1.110       .  S
C2321      H2333   1.109       .  S
C2323      H2334   1.110       .  S
C2323      H2335   1.109       .  S
C2323      H2336   1.110       .  S
C2337      C2338   1.398   1_455  A
C2337      C2342   1.404       .  A
C2337      H2347   1.084   1_455  S
C2338      C2343   1.483       .  S
C2338      C2339   1.408   1_655  A
C2339      C2340   1.407       .  A
C2339      C2344   1.505       .  S
C2340      C2341   1.411       .  A
C2340      H2345   1.083       .  S
C2341      C2342   1.424       .  A
C2342      C2346   1.509       .  S
C2343      C2348   1.410       .  A
C2343      C2352   1.400       .  A
C2344      H2360   1.110       .  S
C2344      H2361   1.110   1_455  S
C2344      H2362   1.111       .  S
C2346      H2357   1.111       .  S
C2346      H2358   1.110       .  S
C2346      H2359   1.110       .  S
C2348      C2349   1.404       .  A
C2348      C2353   1.506       .  S
C2349      C2350   1.407       .  A
C2349      H2354   1.084       .  S
C2350      C2351   1.419       .  A
C2351      C2352   1.406       .  A
C2351      C2355   1.508       .  S
C2352      H2356   1.084       .  S
C2353      H2363   1.111       .  S
C2353      H2364   1.110       .  S
C2353      H2365   1.110       .  S
C2355      H2366   1.109       .  S
C2355      H2367   1.110       .  S
C2355      H2368   1.111       .  S
C2369      C2370   1.397       .  A
C2369      C2374   1.405       .  A
C2369      H2379   1.084       .  S
C2370      C2375   1.483   1_545  S
C2370      C2371   1.409       .  A
C2371      C2372   1.405       .  A
C2371      C2376   1.507   1_545  S
C2372      C2373   1.409       .  A
C2372      H2377   1.083       .  S
C2373      C2374   1.426       .  A
C2374      C2378   1.508       .  S
C2375      C2380   1.411       .  A
C2375      C2384   1.400       .  A
C2376      H2392   1.110       .  S
C2376      H2393   1.110       .  S
C2376      H2394   1.111   1_565  S
C2378      H2389   1.110       .  S
C2378      H2390   1.111       .  S
C2378      H2391   1.108       .  S
C2380      C2381   1.406       .  A
C2380      C2385   1.506       .  S
C2381      C2382   1.404       .  A
C2381      H2386   1.084       .  S
C2382      C2383   1.417       .  A
C2383      C2384   1.403       .  A
C2383      C2387   1.508       .  S
C2384      H2388   1.084       .  S
C2385      H2395   1.111       .  S
C2385      H2396   1.110       .  S
C2385      H2397   1.110       .  S
C2387      H2398   1.111       .  S
C2387      H2399   1.108       .  S
C2387      H2400   1.110       .  S
C2401      C2402   1.404       .  A
C2401      C2406   1.404       .  A
C2401      H2411   1.084       .  S
C2402      C2407   1.482       .  S
C2402      C2403   1.409       .  A
C2403      C2404   1.404       .  A
C2403      C2408   1.506       .  S
C2404      C2405   1.404       .  A
C2404      H2409   1.085       .  S
C2405      C2406   1.411       .  A
C2406      C2410   1.506       .  S
C2407      C2412   1.410       .  A
C2407      C2416   1.402       .  A
C2408      H2424   1.110       .  S
C2408      H2425   1.110       .  S
C2408      H2426   1.111       .  S
C2410      H2421   1.110       .  S
C2410      H2422   1.110       .  S
C2410      H2423   1.109       .  S
C2412      C2413   1.406       .  A
C2412      C2417   1.506       .  S
C2413      C2414   1.405       .  A
C2413      H2418   1.084       .  S
C2414      C2415   1.412       .  A
C2415      C2416   1.402       .  A
C2415      C2419   1.507       .  S
C2416      H2420   1.085       .  S
C2417      H2427   1.111       .  S
C2417      H2428   1.110       .  S
C2417      H2429   1.110       .  S
C2419      H2430   1.110       .  S
C2419      H2431   1.109       .  S
C2419      H2432   1.110       .  S
C2433      C2434   1.399       .  A
C2433      C2438   1.405   1_655  A
C2433      H2443   1.084       .  S
C2434      C2439   1.488       .  S
C2434      C2435   1.410   1_655  A
C2435      C2436   1.409       .  A
C2435      C2440   1.505       .  S
C2436      C2437   1.409       .  A
C2436      H2441   1.084       .  S
C2437      C2438   1.423       .  A
C2438      C2442   1.509       .  S
C2439      C2444   1.411       .  A
C2439      C2448   1.400       .  A
C2440      H2456   1.110   1_455  S
C2440      H2457   1.110   1_455  S
C2440      H2458   1.111       .  S
C2442      H2453   1.111       .  S
C2442      H2454   1.109       .  S
C2442      H2455   1.110       .  S
C2444      C2445   1.406       .  A
C2444      C2449   1.506       .  S
C2445      C2446   1.407       .  A
C2445      H2450   1.084       .  S
C2446      C2447   1.422       .  A
C2447      C2448   1.406       .  A
C2447      C2451   1.509       .  S
C2448      H2452   1.084       .  S
C2449      H2459   1.111       .  S
C2449      H2460   1.110       .  S
C2449      H2461   1.110       .  S
C2451      H2462   1.111       .  S
C2451      H2463   1.109       .  S
C2451      H2464   1.110       .  S
C2465      C2466   1.399       .  A
C2465      C2470   1.409       .  A
C2465      H2475   1.084       .  S
C2466      C2471   1.489   1_545  S
C2466      C2467   1.410       .  A
C2467      C2468   1.407       .  A
C2467      C2472   1.507   1_545  S
C2468      C2469   1.410       .  A
C2468      H2473   1.083       .  S
C2469      C2470   1.426       .  A
C2470      C2474   1.509       .  S
C2471      C2476   1.412       .  A
C2471      C2480   1.402       .  A
C2472      H2488   1.110       .  S
C2472      H2489   1.110       .  S
C2472      H2490   1.111   1_565  S
C2474      H2485   1.111       .  S
C2474      H2486   1.109       .  S
C2474      H2487   1.110       .  S
C2476      C2477   1.407       .  A
C2476      C2481   1.506       .  S
C2477      C2478   1.405       .  A
C2477      H2482   1.084       .  S
C2478      C2479   1.418       .  A
C2479      C2480   1.407       .  A
C2479      C2483   1.507       .  S
C2480      H2484   1.084       .  S
C2481      H2491   1.111       .  S
C2481      H2492   1.110       .  S
C2481      H2493   1.110       .  S
C2483      H2494   1.111       .  S
C2483      H2495   1.108       .  S
C2483      H2496   1.110       .  S
C2497      C2498   1.400       .  A
C2497      C2502   1.406       .  A
C2497      H2507   1.084       .  S
C2498      C2503   1.478       .  S
C2498      C2499   1.405       .  A
C2499      C2500   1.399       .  A
C2499      C2504   1.508       .  S
C2500      C2501   1.413       .  A
C2500      H2505   1.083       .  S
C2501      C2502   1.423       .  A
C2502      C2506   1.508       .  S
C2503      C2508   1.410       .  A
C2503      C2512   1.398       .  A
C2504      H2520   1.110       .  S
C2504      H2521   1.110       .  S
C2504      H2522   1.111       .  S
C2506      H2517   1.109       .  S
C2506      H2518   1.111       .  S
C2506      H2519   1.110       .  S
C2508      C2509   1.403   1_556  A
C2508      C2513   1.506       .  S
C2509      C2510   1.404       .  A
C2509      H2514   1.084       .  S
C2510      C2511   1.421       .  A
C2511      C2512   1.401   1_554  A
C2511      C2515   1.510       .  S
C2512      H2516   1.085       .  S
C2513      H2523   1.111       .  S
C2513      H2524   1.110       .  S
C2513      H2525   1.111       .  S
C2515      H2526   1.111       .  S
C2515      H2527   1.102       .  S
C2515      H2528   1.110       .  S
C2529      C2530   1.401       .  A
C2529      C2534   1.405       .  A
C2529      H2539   1.085       .  S
C2530      C2535   1.478       .  S
C2530      C2531   1.408       .  A
C2531      C2532   1.402       .  A
C2531      C2536   1.507       .  S
C2532      C2533   1.406       .  A
C2532      H2537   1.084       .  S
C2533      C2534   1.418       .  A
C2534      C2538   1.509       .  S
C2535      C2540   1.412       .  A
C2535      C2544   1.397       .  A
C2536      H2552   1.110       .  S
C2536      H2553   1.109       .  S
C2536      H2554   1.111       .  S
C2538      H2549   1.111       .  S
C2538      H2550   1.110       .  S
C2538      H2551   1.105       .  S
C2540      C2541   1.407       .  A
C2540      C2545   1.506       .  S
C2541      C2542   1.403       .  A
C2541      H2546   1.084       .  S
C2542      C2543   1.419       .  A
C2543      C2544   1.400       .  A
C2543      C2547   1.509       .  S
C2544      H2548   1.084       .  S
C2545      H2555   1.111       .  S
C2545      H2556   1.110       .  S
C2545      H2557   1.109       .  S
C2547      H2558   1.109       .  S
C2547      H2559   1.109       .  S
C2547      H2560   1.111       .  S
C2561      C2562   1.402       .  A
C2561      C2566   1.401       .  A
C2561      H2571   1.085       .  S
C2562      C2567   1.482       .  S
C2562      C2563   1.410       .  A
C2563      C2564   1.406       .  A
C2563      C2568   1.505       .  S
C2564      C2565   1.405       .  A
C2564      H2569   1.084       .  S
C2565      C2566   1.411       .  A
C2566      C2570   1.507   1_556  S
C2567      C2572   1.408       .  A
C2567      C2576   1.405       .  A
C2568      H2584   1.110       .  S
C2568      H2585   1.110       .  S
C2568      H2586   1.111       .  S
C2570      H2581   1.110       .  S
C2570      H2582   1.110       .  S
C2570      H2583   1.109       .  S
C2572      C2573   1.403       .  A
C2572      C2577   1.506       .  S
C2573      C2574   1.404       .  A
C2573      H2578   1.085       .  S
C2574      C2575   1.412       .  A
C2575      C2576   1.406       .  A
C2575      C2579   1.506       .  S
C2576      H2580   1.084       .  S
C2577      H2587   1.111   1_556  S
C2577      H2588   1.110   1_556  S
C2577      H2589   1.110       .  S
C2579      H2590   1.110       .  S
C2579      H2591   1.109       .  S
C2579      H2592   1.110       .  S
C2593      C2594   1.400       .  A
C2593      C2598   1.404       .  A
C2593      H2603   1.084       .  S
C2594      C2599   1.484       .  S
C2594      C2595   1.412       .  A
C2595      C2596   1.406       .  A
C2595      C2600   1.506       .  S
C2596      C2597   1.405       .  A
C2596      H2601   1.084       .  S
C2597      C2598   1.418       .  A
C2598      C2602   1.508       .  S
C2599      C2604   1.409   1_655  A
C2599      C2608   1.398       .  A
C2600      H2616   1.110       .  S
C2600      H2617   1.110       .  S
C2600      H2618   1.111       .  S
C2602      H2613   1.111       .  S
C2602      H2614   1.109       .  S
C2602      H2615   1.110       .  S
C2604      C2605   1.406       .  A
C2604      C2609   1.506       .  S
C2605      C2606   1.409       .  A
C2605      H2610   1.084       .  S
C2606      C2607   1.425       .  A
C2607      C2608   1.404   1_455  A
C2607      C2611   1.510       .  S
C2608      H2612   1.084       .  S
C2609      H2619   1.111       .  S
C2609      H2620   1.110   1_455  S
C2609      H2621   1.110   1_455  S
C2611      H2622   1.111       .  S
C2611      H2623   1.110       .  S
C2611      H2624   1.110   1_556  S
C2625      C2626   1.396       .  A
C2625      C2630   1.402       .  A
C2625      H2635   1.085       .  S
C2626      C2631   1.490       .  S
C2626      C2627   1.412       .  A
C2627      C2628   1.413       .  A
C2627      C2632   1.505       .  S
C2628      C2629   1.410       .  A
C2628      H2633   1.084   1_554  S
C2629      C2630   1.426       .  A
C2630      C2634   1.511       .  S
C2631      C2636   1.407       .  A
C2631      C2640   1.403       .  A
C2632      H2648   1.110       .  S
C2632      H2649   1.110   1_554  S
C2632      H2650   1.111   1_554  S
C2634      H2645   1.110       .  S
C2634      H2646   1.111       .  S
C2634      H2647   1.110       .  S
C2636      C2637   1.402       .  A
C2636      C2641   1.509       .  S
C2637      C2638   1.413       .  A
C2637      H2642   1.083       .  S
C2638      C2639   1.424       .  A
C2639      C2640   1.414       .  A
C2639      C2643   1.506       .  S
C2640      H2644   1.084       .  S
C2641      H2651   1.111       .  S
C2641      H2652   1.110       .  S
C2641      H2653   1.110       .  S
C2643      H2654   1.111       .  S
C2643      H2655   1.110       .  S
C2643      H2656   1.110       .  S
C2657      C2658   1.400       .  A
C2657      C2662   1.405       .  A
C2657      H2667   1.084       .  S
C2658      C2663   1.489       .  S
C2658      C2659   1.414       .  A
C2659      C2660   1.408       .  A
C2659      C2664   1.507       .  S
C2660      C2661   1.403       .  A
C2660      H2665   1.084       .  S
C2661      C2662   1.417       .  A
C2662      C2666   1.507       .  S
C2663      C2668   1.414       .  A
C2663      C2672   1.402       .  A
C2664      H2680   1.110       .  S
C2664      H2681   1.109       .  S
C2664      H2682   1.111       .  S
C2666      H2677   1.110       .  S
C2666      H2678   1.110       .  S
C2666      H2679   1.107       .  S
C2668      C2669   1.406       .  A
C2668      C2673   1.507       .  S
C2669      C2670   1.402       .  A
C2669      H2674   1.084       .  S
C2670      C2671   1.418       .  A
C2671      C2672   1.408       .  A
C2671      C2675   1.508       .  S
C2672      H2676   1.084       .  S
C2673      H2683   1.111       .  S
C2673      H2684   1.110       .  S
C2673      H2685   1.109       .  S
C2675      H2686   1.110       .  S
C2675      H2687   1.107       .  S
C2675      H2688   1.110       .  S
C2689      C2690   1.399       .  A
C2689      C2694   1.406   1_655  A
C2689      H2699   1.084       .  S
C2690      C2695   1.487       .  S
C2690      C2691   1.408   1_655  A
C2691      C2692   1.409       .  A
C2691      C2696   1.506       .  S
C2692      C2693   1.413       .  A
C2692      H2697   1.083       .  S
C2693      C2694   1.425       .  A
C2694      C2698   1.508       .  S
C2695      C2700   1.413       .  A
C2695      C2704   1.401       .  A
C2696      H2712   1.110       .  S
C2696      H2713   1.109       .  S
C2696      H2714   1.111       .  S
C2698      H2709   1.110       .  S
C2698      H2710   1.111       .  S
C2698      H2711   1.110       .  S
C2700      C2701   1.407       .  A
C2700      C2705   1.506       .  S
C2701      C2702   1.404       .  A
C2701      H2706   1.084       .  S
C2702      C2703   1.418       .  A
C2703      C2704   1.405       .  A
C2703      C2707   1.508       .  S
C2704      H2708   1.084       .  S
C2705      H2715   1.111       .  S
C2705      H2716   1.110       .  S
C2705      H2717   1.109       .  S
C2707      H2718   1.110       .  S
C2707      H2719   1.108       .  S
C2707      H2720   1.111       .  S
C2721      C2722   1.401       .  A
C2721      C2726   1.403       .  A
C2721      H2731   1.085       .  S
C2722      C2727   1.479       .  S
C2722      C2723   1.410       .  A
C2723      C2724   1.402       .  A
C2723      C2728   1.507       .  S
C2724      C2725   1.404       .  A
C2724      H2729   1.084       .  S
C2725      C2726   1.418       .  A
C2726      C2730   1.509       .  S
C2727      C2732   1.411       .  A
C2727      C2736   1.397       .  A
C2728      H2744   1.110       .  S
C2728      H2745   1.110       .  S
C2728      H2746   1.111       .  S
C2730      H2741   1.111       .  S
C2730      H2742   1.110       .  S
C2730      H2743   1.105       .  S
C2732      C2733   1.406       .  A
C2732      C2737   1.506       .  S
C2733      C2734   1.405       .  A
C2733      H2738   1.084       .  S
C2734      C2735   1.421       .  A
C2735      C2736   1.400       .  A
C2735      C2739   1.510       .  S
C2736      H2740   1.084       .  S
C2737      H2747   1.111       .  S
C2737      H2748   1.110       .  S
C2737      H2749   1.110       .  S
C2739      H2750   1.109       .  S
C2739      H2751   1.110       .  S
C2739      H2752   1.111       .  S
C2753      C2754   1.396       .  A
C2753      C2758   1.401       .  A
C2753      H2763   1.084       .  S
C2754      C2759   1.480       .  S
C2754      C2755   1.411       .  A
C2755      C2756   1.407       .  A
C2755      C2760   1.506       .  S
C2756      C2757   1.407       .  A
C2756      H2761   1.084       .  S
C2757      C2758   1.424       .  A
C2758      C2762   1.510       .  S
C2759      C2764   1.410       .  A
C2759      C2768   1.399       .  A
C2760      H2776   1.110       .  S
C2760      H2777   1.110       .  S
C2760      H2778   1.111       .  S
C2762      H2773   1.109       .  S
C2762      H2774   1.111       .  S
C2762      H2775   1.111       .  S
C2764      C2765   1.405       .  A
C2764      C2769   1.506       .  S
C2765      C2766   1.405       .  A
C2765      H2770   1.084       .  S
C2766      C2767   1.418       .  A
C2767      C2768   1.403       .  A
C2767      C2771   1.508       .  S
C2768      H2772   1.084       .  S
C2769      H2779   1.111       .  S
C2769      H2780   1.110       .  S
C2769      H2781   1.110       .  S
C2771      H2782   1.111       .  S
C2771      H2783   1.110       .  S
C2771      H2784   1.109       .  S
C2785      C2786   1.399       .  A
C2785      C2790   1.407       .  A
C2785      H2795   1.084       .  S
C2786      C2791   1.492       .  S
C2786      C2787   1.414       .  A
C2787      C2788   1.411       .  A
C2787      C2792   1.506       .  S
C2788      C2789   1.407       .  A
C2788      H2793   1.084       .  S
C2789      C2790   1.424       .  A
C2790      C2794   1.508       .  S
C2791      C2796   1.413       .  A
C2791      C2800   1.399       .  A
C2792      H2808   1.111       .  S
C2792      H2809   1.108       .  S
C2792      H2810   1.111       .  S
C2794      H2805   1.111       .  S
C2794      H2806   1.109       .  S
C2794      H2807   1.108       .  S
C2796      C2797   1.410       .  A
C2796      C2801   1.507       .  S
C2797      C2798   1.407       .  A
C2797      H2802   1.084       .  S
C2798      C2799   1.425       .  A
C2799      C2800   1.407       .  A
C2799      C2803   1.509       .  S
C2800      H2804   1.085       .  S
C2801      H2811   1.111       .  S
C2801      H2812   1.110       .  S
C2801      H2813   1.108       .  S
C2803      H2814   1.110       .  S
C2803      H2815   1.100       .  S
C2803      H2816   1.111       .  S
C2817      C2818   1.400       .  A
C2817      C2822   1.405       .  A
C2817      H2827   1.084       .  S
C2818      C2823   1.485       .  S
C2818      C2819   1.414       .  A
C2819      C2820   1.405       .  A
C2819      C2824   1.507       .  S
C2820      C2821   1.402       .  A
C2820      H2825   1.084       .  S
C2821      C2822   1.417       .  A
C2822      C2826   1.507       .  S
C2823      C2828   1.411       .  A
C2823      C2832   1.403       .  A
C2824      H2840   1.109       .  S
C2824      H2841   1.110       .  S
C2824      H2842   1.111       .  S
C2826      H2837   1.110       .  S
C2826      H2838   1.110       .  S
C2826      H2839   1.106       .  S
C2828      C2829   1.408       .  A
C2828      C2833   1.505       .  S
C2829      C2830   1.406       .  A
C2829      H2834   1.084       .  S
C2830      C2831   1.412       .  A
C2831      C2832   1.401       .  A
C2831      C2835   1.507       .  S
C2832      H2836   1.085       .  S
C2833      H2843   1.111       .  S
C2833      H2844   1.110       .  S
C2833      H2845   1.110       .  S
C2835      H2846   1.110       .  S
C2835      H2847   1.109       .  S
C2835      H2848   1.110       .  S
C2849      C2850   1.401       .  A
C2849      C2854   1.410       .  A
C2849      H2859   1.084       .  S
C2850      C2855   1.488       .  S
C2850      C2851   1.409       .  A
C2851      C2852   1.405       .  A
C2851      C2856   1.508       .  S
C2852      C2853   1.411       .  A
C2852      H2857   1.083       .  S
C2853      C2854   1.424       .  A
C2854      C2858   1.507       .  S
C2855      C2860   1.412       .  A
C2855      C2864   1.400       .  A
C2856      H2872   1.110       .  S
C2856      H2873   1.110       .  S
C2856      H2874   1.111       .  S
C2858      H2869   1.111       .  S
C2858      H2870   1.110       .  S
C2858      H2871   1.108       .  S
C2860      C2861   1.408       .  A
C2860      C2865   1.506       .  S
C2861      C2862   1.407       .  A
C2861      H2866   1.084       .  S
C2862      C2863   1.421       .  A
C2863      C2864   1.406       .  A
C2863      C2867   1.509       .  S
C2864      H2868   1.084       .  S
C2865      H2875   1.111       .  S
C2865      H2876   1.110       .  S
C2865      H2877   1.110       .  S
C2867      H2878   1.111       .  S
C2867      H2879   1.111       .  S
C2867      H2880   1.109       .  S
C2881      C2882   1.402       .  A
C2881      C2886   1.405       .  A
C2881      H2891   1.084       .  S
C2882      C2887   1.489       .  S
C2882      C2883   1.415       .  A
C2883      C2884   1.404       .  A
C2883      C2888   1.508       .  S
C2884      C2885   1.402       .  A
C2884      H2889   1.084       .  S
C2885      C2886   1.416       .  A
C2886      C2890   1.508       .  S
C2887      C2892   1.413       .  A
C2887      C2896   1.403       .  A
C2888      H2904   1.109       .  S
C2888      H2905   1.110       .  S
C2888      H2906   1.111       .  S
C2890      H2901   1.110       .  S
C2890      H2902   1.110       .  S
C2890      H2903   1.106       .  S
C2892      C2893   1.409       .  A
C2892      C2897   1.506       .  S
C2893      C2894   1.405       .  A
C2893      H2898   1.084       .  S
C2894      C2895   1.413       .  A
C2895      C2896   1.401       .  A
C2895      C2899   1.507       .  S
C2896      H2900   1.085       .  S
C2897      H2907   1.111       .  S
C2897      H2908   1.109       .  S
C2897      H2909   1.110       .  S
C2899      H2910   1.110       .  S
C2899      H2911   1.109       .  S
C2899      H2912   1.110       .  S
C2913      C2914   1.400       .  A
C2913      C2918   1.403       .  A
C2913      H2923   1.084       .  S
C2914      C2919   1.480       .  S
C2914      C2915   1.410       .  A
C2915      C2916   1.404       .  A
C2915      C2920   1.506       .  S
C2916      C2917   1.404       .  A
C2916      H2921   1.084       .  S
C2917      C2918   1.418       .  A
C2918      C2922   1.508       .  S
C2919      C2924   1.409       .  A
C2919      C2928   1.397       .  A
C2920      H2936   1.110       .  S
C2920      H2937   1.110       .  S
C2920      H2938   1.111       .  S
C2922      H2933   1.111       .  S
C2922      H2934   1.111       .  S
C2922      H2935   1.109       .  S
C2924      C2925   1.402       .  A
C2924      C2929   1.507       .  S
C2925      C2926   1.409       .  A
C2925      H2930   1.083       .  S
C2926      C2927   1.427       .  A
C2927      C2928   1.406       .  A
C2927      C2931   1.510       .  S
C2928      H2932   1.084       .  S
C2929      H2939   1.111       .  S
C2929      H2940   1.110       .  S
C2929      H2941   1.110       .  S
C2931      H2942   1.111       .  S
C2931      H2943   1.110       .  S
C2931      H2944   1.110       .  S
C2945      C2946   1.400       .  A
C2945      C2950   1.404       .  A
C2945      H2955   1.085       .  S
C2946      C2951   1.485       .  S
C2946      C2947   1.413       .  A
C2947      C2948   1.407       .  A
C2947      C2952   1.507       .  S
C2948      C2949   1.403       .  A
C2948      H2953   1.084       .  S
C2949      C2950   1.420       .  A
C2950      C2954   1.509       .  S
C2951      C2956   1.408       .  A
C2951      C2960   1.401       .  A
C2952      H2968   1.110       .  S
C2952      H2969   1.109       .  S
C2952      H2970   1.111       .  S
C2954      H2965   1.111       .  S
C2954      H2966   1.110       .  S
C2954      H2967   1.107       .  S
C2956      C2957   1.404       .  A
C2956      C2961   1.508       .  S
C2957      C2958   1.412       .  A
C2957      H2962   1.084       .  S
C2958      C2959   1.422       .  A
C2959      C2960   1.408       .  A
C2959      C2963   1.508       .  S
C2960      H2964   1.084       .  S
C2961      H2971   1.111       .  S
C2961      H2972   1.110       .  S
C2961      H2973   1.109       .  S
C2963      H2974   1.110       .  S
C2963      H2975   1.110       .  S
C2963      H2976   1.111       .  S
C2977      C2978   1.398       .  A
C2977      C2982   1.402       .  A
C2977      H2987   1.084       .  S
C2978      C2983   1.484       .  S
C2978      C2979   1.412       .  A
C2979      C2980   1.408       .  A
C2979      C2984   1.505       .  S
C2980      C2981   1.406       .  A
C2980      H2985   1.084       .  S
C2981      C2982   1.421       .  A
C2982      C2986   1.510       .  S
C2983      C2988   1.412       .  A
C2983      C2992   1.400       .  A
C2984      H3000   1.110       .  S
C2984      H3001   1.110       .  S
C2984      H3002   1.111       .  S
C2986      H2997   1.109       .  S
C2986      H2998   1.111       .  S
C2986      H2999   1.111       .  S
C2988      C2989   1.405   1_554  A
C2988      C2993   1.506       .  S
C2989      C2990   1.404       .  A
C2989      H2994   1.084       .  S
C2990      C2991   1.420       .  A
C2991      C2992   1.405   1_556  A
C2991      C2995   1.508       .  S
C2992      H2996   1.084       .  S
C2993      H3003   1.111       .  S
C2993      H3004   1.110       .  S
C2993      H3005   1.110       .  S
C2995      H3006   1.111       .  S
C2995      H3007   1.107       .  S
C2995      H3008   1.110       .  S
C3009      C3010   1.400       .  A
C3009      C3014   1.403       .  A
C3009      H3019   1.084       .  S
C3010      C3015   1.486       .  S
C3010      C3011   1.415       .  A
C3011      C3012   1.407       .  A
C3011      C3016   1.506       .  S
C3012      C3013   1.401       .  A
C3012      H3017   1.084       .  S
C3013      C3014   1.416       .  A
C3014      C3018   1.508       .  S
C3015      C3020   1.411       .  A
C3015      C3024   1.401       .  A
C3016      H3032   1.110       .  S
C3016      H3033   1.110       .  S
C3016      H3034   1.111       .  S
C3018      H3029   1.110       .  S
C3018      H3030   1.111       .  S
C3018      H3031   1.108       .  S
C3020      C3021   1.409       .  A
C3020      C3025   1.505       .  S
C3021      C3022   1.406       .  A
C3021      H3026   1.084       .  S
C3022      C3023   1.415       .  A
C3023      C3024   1.401       .  A
C3023      C3027   1.508       .  S
C3024      H3028   1.085       .  S
C3025      H3035   1.111       .  S
C3025      H3036   1.110       .  S
C3025      H3037   1.110       .  S
C3027      H3038   1.111       .  S
C3027      H3039   1.109       .  S
C3027      H3040   1.110       .  S
C3041      C3042   1.398       .  A
C3041      C3046   1.405       .  A
C3041      H3051   1.084       .  S
C3042      C3047   1.483       .  S
C3042      C3043   1.408       .  A
C3043      C3044   1.406       .  A
C3043      C3048   1.506       .  S
C3044      C3045   1.412       .  A
C3044      H3049   1.083       .  S
C3045      C3046   1.426       .  A
C3046      C3050   1.509       .  S
C3047      C3052   1.412       .  A
C3047      C3056   1.401       .  A
C3048      H3064   1.110       .  S
C3048      H3065   1.109       .  S
C3048      H3066   1.111       .  S
C3050      H3061   1.110       .  S
C3050      H3062   1.111       .  S
C3050      H3063   1.110       .  S
C3052      C3053   1.405       .  A
C3052      C3057   1.507       .  S
C3053      C3054   1.403       .  A
C3053      H3058   1.084       .  S
C3054      C3055   1.416       .  A
C3055      C3056   1.405       .  A
C3055      C3059   1.508       .  S
C3056      H3060   1.084       .  S
C3057      H3067   1.111       .  S
C3057      H3068   1.110       .  S
C3057      H3069   1.109       .  S
C3059      H3070   1.109       .  S
C3059      H3071   1.110       .  S
C3059      H3072   1.111       .  S
C3073      C3074   1.399       .  A
C3073      C3078   1.406       .  A
C3073      H3083   1.084       .  S
C3074      C3079   1.487       .  S
C3074      C3075   1.409       .  A
C3075      C3076   1.409       .  A
C3075      C3080   1.506       .  S
C3076      C3077   1.411       .  A
C3076      H3081   1.084       .  S
C3077      C3078   1.424       .  A
C3078      C3082   1.509       .  S
C3079      C3084   1.410       .  A
C3079      C3088   1.403       .  A
C3080      H3096   1.110       .  S
C3080      H3097   1.110       .  S
C3080      H3098   1.111       .  S
C3082      H3093   1.111       .  S
C3082      H3094   1.110       .  S
C3082      H3095   1.110       .  S
C3084      C3085   1.404       .  A
C3084      C3089   1.507       .  S
C3085      C3086   1.408       .  A
C3085      H3090   1.084       .  S
C3086      C3087   1.418       .  A
C3087      C3088   1.410       .  A
C3087      C3091   1.507       .  S
C3088      H3092   1.084       .  S
C3089      H3099   1.111       .  S
C3089      H3100   1.110       .  S
C3089      H3101   1.110       .  S
C3091      H3102   1.111       .  S
C3091      H3103   1.110       .  S
C3091      H3104   1.111       .  S
C3105      C3106   1.404       .  A
C3105      C3110   1.414       .  A
C3105      H3115   1.084       .  S
C3106      C3111   1.494       .  S
C3106      C3107   1.409       .  A
C3107      C3108   1.405       .  A
C3107      C3112   1.507       .  S
C3108      C3109   1.411       .  A
C3108      H3113   1.083       .  S
C3109      C3110   1.423       .  A
C3110      C3114   1.506       .  S
C3111      C3116   1.410       .  A
C3111      C3120   1.407       .  A
C3112      H3128   1.110       .  S
C3112      H3129   1.110       .  S
C3112      H3130   1.111       .  S
C3114      H3125   1.111       .  S
C3114      H3126   1.109       .  S
C3114      H3127   1.110       .  S
C3116      C3117   1.404       .  A
C3116      C3121   1.507       .  S
C3117      C3118   1.408       .  A
C3117      H3122   1.085       .  S
C3118      C3119   1.416       .  A
C3119      C3120   1.411       .  A
C3119      C3123   1.506       .  S
C3120      H3124   1.084       .  S
C3121      H3131   1.111       .  S
C3121      H3132   1.110       .  S
C3121      H3133   1.110       .  S
C3123      H3134   1.110       .  S
C3123      H3135   1.107       .  S
C3123      H3136   1.110       .  S
C3137      C3138   1.399       .  A
C3137      C3142   1.402       .  A
C3137      H3147   1.084       .  S
C3138      C3143   1.484       .  S
C3138      C3139   1.414       .  A
C3139      C3140   1.407       .  A
C3139      C3144   1.506       .  S
C3140      C3141   1.401       .  A
C3140      H3145   1.084       .  S
C3141      C3142   1.417       .  A
C3142      C3146   1.508       .  S
C3143      C3148   1.410       .  A
C3143      C3152   1.401       .  A
C3144      H3160   1.110       .  S
C3144      H3161   1.110       .  S
C3144      H3162   1.111   1_554  S
C3146      H3157   1.110       .  S
C3146      H3158   1.110       .  S
C3146      H3159   1.108       .  S
C3148      C3149   1.408       .  A
C3148      C3153   1.505       .  S
C3149      C3150   1.406       .  A
C3149      H3154   1.084       .  S
C3150      C3151   1.416       .  A
C3151      C3152   1.401       .  A
C3151      C3155   1.508       .  S
C3152      H3156   1.085       .  S
C3153      H3163   1.111       .  S
C3153      H3164   1.110       .  S
C3153      H3165   1.110       .  S
C3155      H3166   1.111       .  S
C3155      H3167   1.109       .  S
C3155      H3168   1.110       .  S
C3169      C3170   1.399       .  A
C3169      C3174   1.405       .  A
C3169      H3179   1.084       .  S
C3170      C3175   1.483   1_556  S
C3170      C3171   1.407   1_556  A
C3171      C3172   1.406       .  A
C3171      C3176   1.506       .  S
C3172      C3173   1.412   1_554  A
C3172      H3177   1.084       .  S
C3173      C3174   1.424       .  A
C3174      C3178   1.509       .  S
C3175      C3180   1.410       .  A
C3175      C3184   1.400       .  A
C3176      H3192   1.110       .  S
C3176      H3193   1.110       .  S
C3176      H3194   1.111       .  S
C3178      H3189   1.111       .  S
C3178      H3190   1.110       .  S
C3178      H3191   1.110       .  S
C3180      C3181   1.404       .  A
C3180      C3185   1.506   1_554  S
C3181      C3182   1.405       .  A
C3181      H3186   1.084       .  S
C3182      C3183   1.419       .  A
C3183      C3184   1.405       .  A
C3183      C3187   1.509       .  S
C3184      H3188   1.084       .  S
C3185      H3195   1.111       .  S
C3185      H3196   1.110       .  S
C3185      H3197   1.110       .  S
C3187      H3198   1.109       .  S
C3187      H3199   1.111       .  S
C3187      H3200   1.111       .  S
C3201      C3202   1.400       .  A
C3201      C3206   1.406       .  A
C3201      H3211   1.085       .  S
C3202      C3207   1.484       .  S
C3202      C3203   1.409   1_554  A
C3203      C3204   1.404       .  A
C3203      C3208   1.506       .  S
C3204      C3205   1.407       .  A
C3204      H3209   1.084       .  S
C3205      C3206   1.422   1_556  A
C3206      C3210   1.507       .  S
C3207      C3212   1.408   1_554  A
C3207      C3216   1.398       .  A
C3208      H3224   1.110       .  S
C3208      H3225   1.110       .  S
C3208      H3226   1.111       .  S
C3210      H3221   1.110       .  S
C3210      H3222   1.111       .  S
C3210      H3223   1.101       .  S
C3212      C3213   1.407   1_556  A
C3212      C3217   1.506       .  S
C3213      C3214   1.411       .  A
C3213      H3218   1.083   1_554  S
C3214      C3215   1.425       .  A
C3215      C3216   1.404       .  A
C3215      C3219   1.509       .  S
C3216      H3220   1.084       .  S
C3217      H3227   1.111       .  S
C3217      H3228   1.110       .  S
C3217      H3229   1.110       .  S
C3219      H3230   1.110       .  S
C3219      H3231   1.110       .  S
C3219      H3232   1.111       .  S
C3233      C3234   1.399       .  A
C3233      C3238   1.400       .  A
C3233      H3243   1.084       .  S
C3234      C3239   1.482       .  S
C3234      C3235   1.414       .  A
C3235      C3236   1.407       .  A
C3235      C3240   1.507       .  S
C3236      C3237   1.404       .  A
C3236      H3241   1.084       .  S
C3237      C3238   1.417       .  A
C3238      C3242   1.509       .  S
C3239      C3244   1.410       .  A
C3239      C3248   1.401       .  A
C3240      H3256   1.110       .  S
C3240      H3257   1.110       .  S
C3240      H3258   1.111       .  S
C3242      H3253   1.111       .  S
C3242      H3254   1.109       .  S
C3242      H3255   1.111       .  S
C3244      C3245   1.403       .  A
C3244      C3249   1.507       .  S
C3245      C3246   1.406       .  A
C3245      H3250   1.084       .  S
C3246      C3247   1.420       .  A
C3247      C3248   1.403       .  A
C3247      C3251   1.510       .  S
C3248      H3252   1.085       .  S
C3249      H3259   1.111       .  S
C3249      H3260   1.109       .  S
C3249      H3261   1.111       .  S
C3251      H3262   1.110       .  S
C3251      H3263   1.104       .  S
C3251      H3264   1.111       .  S
C3265      C3266   1.403       .  A
C3265      C3270   1.408       .  A
C3265      H3275   1.084       .  S
C3266      C3271   1.480       .  S
C3266      C3267   1.407       .  A
C3267      C3268   1.398       .  A
C3267      C3272   1.508       .  S
C3268      C3269   1.407       .  A
C3268      H3273   1.084       .  S
C3269      C3270   1.420       .  A
C3270      C3274   1.508       .  S
C3271      C3276   1.410       .  A
C3271      C3280   1.401       .  A
C3272      H3288   1.110       .  S
C3272      H3289   1.110       .  S
C3272      H3290   1.111       .  S
C3274      H3285   1.111       .  S
C3274      H3286   1.110       .  S
C3274      H3287   1.105       .  S
C3276      C3277   1.403       .  A
C3276      C3281   1.506       .  S
C3277      C3278   1.404       .  A
C3277      H3282   1.084       .  S
C3278      C3279   1.417       .  A
C3279      C3280   1.403       .  A
C3279      C3283   1.508       .  S
C3280      H3284   1.085       .  S
C3281      H3291   1.111       .  S
C3281      H3292   1.110       .  S
C3281      H3293   1.110       .  S
C3283      H3294   1.110       .  S
C3283      H3295   1.108       .  S
C3283      H3296   1.111       .  S
C3297      C3298   1.402       .  A
C3297      C3302   1.407       .  A
C3297      H3307   1.083       .  S
C3298      C3303   1.499       .  S
C3298      C3299   1.416       .  A
C3299      C3300   1.410       .  A
C3299      C3304   1.507       .  S
C3300      C3301   1.407       .  A
C3300      H3305   1.084       .  S
C3301      C3302   1.421       .  A
C3302      C3306   1.508       .  S
C3303      C3308   1.416       .  A
C3303      C3312   1.406       .  A
C3304      H3320   1.108       .  S
C3304      H3321   1.110       .  S
C3304      H3322   1.111       .  S
C3306      H3317   1.111       .  S
C3306      H3318   1.109       .  S
C3306      H3319   1.110       .  S
C3308      C3309   1.407       .  A
C3308      C3313   1.508       .  S
C3309      C3310   1.406       .  A
C3309      H3314   1.084       .  S
C3310      C3311   1.416       .  A
C3311      C3312   1.408       .  A
C3311      C3315   1.507       .  S
C3312      H3316   1.084       .  S
C3313      H3323   1.111       .  S
C3313      H3324   1.108       .  S
C3313      H3325   1.110       .  S
C3315      H3326   1.110       .  S
C3315      H3327   1.108       .  S
C3315      H3328   1.111       .  S
C3329      C3330   1.405       .  A
C3329      C3334   1.406       .  A
C3329      H3339   1.084       .  S
C3330      C3335   1.480       .  S
C3330      C3331   1.408       .  A
C3331      C3332   1.401       .  A
C3331      C3336   1.507       .  S
C3332      C3333   1.405       .  A
C3332      H3337   1.085       .  S
C3333      C3334   1.412       .  A
C3334      C3338   1.506       .  S
C3335      C3340   1.410       .  A
C3335      C3344   1.401       .  A
C3336      H3352   1.110       .  S
C3336      H3353   1.110       .  S
C3336      H3354   1.111       .  S
C3338      H3349   1.110       .  S
C3338      H3350   1.110       .  S
C3338      H3351   1.108       .  S
C3340      C3341   1.406       .  A
C3340      C3345   1.505       .  S
C3341      C3342   1.404       .  A
C3341      H3346   1.084       .  S
C3342      C3343   1.414       .  A
C3343      C3344   1.400       .  A
C3343      C3347   1.508       .  S
C3344      H3348   1.085       .  S
C3345      H3355   1.111       .  S
C3345      H3356   1.110       .  S
C3345      H3357   1.110       .  S
C3347      H3358   1.110       .  S
C3347      H3359   1.109       .  S
C3347      H3360   1.111       .  S
C3361      C3362   1.400       .  A
C3361      C3366   1.409       .  A
C3361      H3371   1.084       .  S
C3362      C3367   1.485       .  S
C3362      C3363   1.408       .  A
C3363      C3364   1.402       .  A
C3363      C3368   1.508       .  S
C3364      C3365   1.411       .  A
C3364      H3369   1.083       .  S
C3365      C3366   1.426       .  A
C3366      C3370   1.509       .  S
C3367      C3372   1.410   1_545  A
C3367      C3376   1.399       .  A
C3368      H3384   1.110       .  S
C3368      H3385   1.110       .  S
C3368      H3386   1.111       .  S
C3370      H3381   1.110       .  S
C3370      H3382   1.111       .  S
C3370      H3383   1.110       .  S
C3372      C3373   1.407       .  A
C3372      C3377   1.506       .  S
C3373      C3374   1.409       .  A
C3373      H3378   1.084       .  S
C3374      C3375   1.420       .  A
C3375      C3376   1.403   1_565  A
C3375      C3379   1.508       .  S
C3376      H3380   1.084       .  S
C3377      H3387   1.111       .  S
C3377      H3388   1.110   1_565  S
C3377      H3389   1.110   1_565  S
C3379      H3390   1.111       .  S
C3379      H3391   1.111       .  S
C3379      H3392   1.109       .  S
C3393      C3394   1.400       .  A
C3393      C3398   1.408       .  A
C3393      H3403   1.084   1_655  S
C3394      C3399   1.494   1_655  S
C3394      C3395   1.410       .  A
C3395      C3396   1.411       .  A
C3395      C3400   1.505       .  S
C3396      C3397   1.412       .  A
C3396      H3401   1.084       .  S
C3397      C3398   1.426       .  A
C3398      C3402   1.509       .  S
C3399      C3404   1.413       .  A
C3399      C3408   1.402       .  A
C3400      H3416   1.110       .  S
C3400      H3417   1.110       .  S
C3400      H3418   1.111       .  S
C3402      H3413   1.110       .  S
C3402      H3414   1.111       .  S
C3402      H3415   1.110       .  S
C3404      C3405   1.409       .  A
C3404      C3409   1.506       .  S
C3405      C3406   1.408       .  A
C3405      H3410   1.083       .  S
C3406      C3407   1.421       .  A
C3407      C3408   1.409       .  A
C3407      C3411   1.508       .  S
C3408      H3412   1.084       .  S
C3409      H3419   1.111       .  S
C3409      H3420   1.110       .  S
C3409      H3421   1.110       .  S
C3411      H3422   1.109       .  S
C3411      H3423   1.111       .  S
C3411      H3424   1.111       .  S
C3425      C3426   1.402       .  A
C3425      C3430   1.408       .  A
C3425      H3435   1.084       .  S
C3426      C3431   1.483       .  S
C3426      C3427   1.413       .  A
C3427      C3428   1.401       .  A
C3427      C3432   1.507       .  S
C3428      C3429   1.400       .  A
C3428      H3433   1.084       .  S
C3429      C3430   1.415       .  A
C3430      C3434   1.507       .  S
C3431      C3436   1.414       .  A
C3431      C3440   1.398       .  A
C3432      H3448   1.110       .  S
C3432      H3449   1.110       .  S
C3432      H3450   1.111       .  S
C3434      H3445   1.110       .  S
C3434      H3446   1.111       .  S
C3434      H3447   1.110       .  S
C3436      C3437   1.408       .  A
C3436      C3441   1.506       .  S
C3437      C3438   1.402       .  A
C3437      H3442   1.084       .  S
C3438      C3439   1.417       .  A
C3439      C3440   1.401       .  A
C3439      C3443   1.507       .  S
C3440      H3444   1.085       .  S
C3441      H3451   1.111       .  S
C3441      H3452   1.110       .  S
C3441      H3453   1.110       .  S
C3443      H3454   1.110       .  S
C3443      H3455   1.107       .  S
C3443      H3456   1.110       .  S
C3457      C3458   1.400       .  A
C3457      C3462   1.406       .  A
C3457      H3467   1.084       .  S
C3458      C3463   1.488       .  S
C3458      C3459   1.411       .  A
C3459      C3460   1.408       .  A
C3459      C3464   1.506       .  S
C3460      C3461   1.410       .  A
C3460      H3465   1.084       .  S
C3461      C3462   1.421       .  A
C3462      C3466   1.508       .  S
C3463      C3468   1.409       .  A
C3463      C3472   1.401   1_545  A
C3464      H3480   1.110       .  S
C3464      H3481   1.110       .  S
C3464      H3482   1.111       .  S
C3466      H3477   1.111       .  S
C3466      H3478   1.110       .  S
C3466      H3479   1.109       .  S
C3468      C3469   1.403   1_545  A
C3468      C3473   1.508       .  S
C3469      C3470   1.410       .  A
C3469      H3474   1.083       .  S
C3470      C3471   1.425       .  A
C3471      C3472   1.412       .  A
C3471      C3475   1.508       .  S
C3472      H3476   1.084       .  S
C3473      H3483   1.111       .  S
C3473      H3484   1.110       .  S
C3473      H3485   1.110       .  S
C3475      H3486   1.111       .  S
C3475      H3487   1.111       .  S
C3475      H3488   1.110       .  S
C3489      C3490   1.398       .  A
C3489      C3494   1.402       .  A
C3489      H3499   1.084       .  S
C3490      C3495   1.477   1_455  S
C3490      C3491   1.409       .  A
C3491      C3492   1.402       .  A
C3491      C3496   1.506       .  S
C3492      C3493   1.406       .  A
C3492      H3497   1.084       .  S
C3493      C3494   1.421       .  A
C3494      C3498   1.509       .  S
C3495      C3500   1.406       .  A
C3495      C3504   1.399       .  A
C3496      H3512   1.110       .  S
C3496      H3513   1.110       .  S
C3496      H3514   1.111       .  S
C3498      H3509   1.111       .  S
C3498      H3510   1.109       .  S
C3498      H3511   1.110       .  S
C3500      C3501   1.404       .  A
C3500      C3505   1.506       .  S
C3501      C3502   1.411       .  A
C3501      H3506   1.084       .  S
C3502      C3503   1.422       .  A
C3503      C3504   1.402       .  A
C3503      C3507   1.509       .  S
C3504      H3508   1.085   1_655  S
C3505      H3515   1.111       .  S
C3505      H3516   1.110       .  S
C3505      H3517   1.110       .  S
C3507      H3518   1.111       .  S
C3507      H3519   1.110       .  S
C3507      H3520   1.110       .  S
C3521      C3522   1.397       .  A
C3521      C3526   1.401       .  A
C3521      H3531   1.084       .  S
C3522      C3527   1.479       .  S
C3522      C3523   1.411       .  A
C3523      C3524   1.406       .  A
C3523      C3528   1.505       .  S
C3524      C3525   1.403       .  A
C3524      H3529   1.084       .  S
C3525      C3526   1.423       .  A
C3526      C3530   1.511       .  S
C3527      C3532   1.409       .  A
C3527      C3536   1.397       .  A
C3528      H3544   1.110       .  S
C3528      H3545   1.110       .  S
C3528      H3546   1.111       .  S
C3530      H3541   1.109       .  S
C3530      H3542   1.111       .  S
C3530      H3543   1.111       .  S
C3532      C3533   1.404   1_556  A
C3532      C3537   1.506       .  S
C3533      C3534   1.408       .  A
C3533      H3538   1.084       .  S
C3534      C3535   1.423       .  A
C3535      C3536   1.403   1_554  A
C3535      C3539   1.509       .  S
C3536      H3540   1.084       .  S
C3537      H3547   1.111       .  S
C3537      H3548   1.110       .  S
C3537      H3549   1.110       .  S
C3539      H3550   1.111       .  S
C3539      H3551   1.110       .  S
C3539      H3552   1.109       .  S
C3553      C3554   1.399       .  A
C3553      C3558   1.404       .  A
C3553      H3563   1.084       .  S
C3554      C3559   1.480       .  S
C3554      C3555   1.408       .  A
C3555      C3556   1.403       .  A
C3555      C3560   1.506       .  S
C3556      C3557   1.406       .  A
C3556      H3561   1.084       .  S
C3557      C3558   1.422       .  A
C3558      C3562   1.509       .  S
C3559      C3564   1.406       .  A
C3559      C3568   1.403       .  A
C3560      H3576   1.110       .  S
C3560      H3577   1.110       .  S
C3560      H3578   1.111       .  S
C3562      H3573   1.111       .  S
C3562      H3574   1.110       .  S
C3562      H3575   1.110       .  S
C3564      C3565   1.400       .  A
C3564      C3569   1.507       .  S
C3565      C3566   1.410       .  A
C3565      H3570   1.084       .  S
C3566      C3567   1.418       .  A
C3567      C3568   1.408       .  A
C3567      C3571   1.507       .  S
C3568      H3572   1.084       .  S
C3569      H3579   1.111       .  S
C3569      H3580   1.110       .  S
C3569      H3581   1.110       .  S
C3571      H3582   1.111       .  S
C3571      H3583   1.110       .  S
C3571      H3584   1.110       .  S
C3585      C3586   1.405       .  A
C3585      C3590   1.407       .  A
C3585      H3595   1.084       .  S
C3586      C3591   1.487       .  S
C3586      C3587   1.409       .  A
C3587      C3588   1.405       .  A
C3587      C3592   1.506       .  S
C3588      C3589   1.407       .  A
C3588      H3593   1.085       .  S
C3589      C3590   1.412       .  A
C3590      C3594   1.505   1_556  S
C3591      C3596   1.411       .  A
C3591      C3600   1.402       .  A
C3592      H3608   1.110       .  S
C3592      H3609   1.110       .  S
C3592      H3610   1.111       .  S
C3594      H3605   1.110       .  S
C3594      H3606   1.110       .  S
C3594      H3607   1.109       .  S
C3596      C3597   1.408       .  A
C3596      C3601   1.505       .  S
C3597      C3598   1.405       .  A
C3597      H3602   1.084       .  S
C3598      C3599   1.414       .  A
C3599      C3600   1.403       .  A
C3599      C3603   1.507       .  S
C3600      H3604   1.085       .  S
C3601      H3611   1.111       .  S
C3601      H3612   1.110       .  S
C3601      H3613   1.110       .  S
C3603      H3614   1.110       .  S
C3603      H3615   1.109       .  S
C3603      H3616   1.111       .  S
C3617      C3618   1.399       .  A
C3617      C3622   1.405       .  A
C3617      H3627   1.084       .  S
C3618      C3623   1.487       .  S
C3618      C3619   1.411       .  A
C3619      C3620   1.409       .  A
C3619      C3624   1.505       .  S
C3620      C3621   1.408       .  A
C3620      H3625   1.084       .  S
C3621      C3622   1.421       .  A
C3622      C3626   1.509       .  S
C3623      C3628   1.407       .  A
C3623      C3632   1.401       .  A
C3624      H3640   1.110       .  S
C3624      H3641   1.110       .  S
C3624      H3642   1.111       .  S
C3626      H3637   1.109       .  S
C3626      H3638   1.111       .  S
C3626      H3639   1.110       .  S
C3628      C3629   1.403       .  A
C3628      C3633   1.507       .  S
C3629      C3630   1.413       .  A
C3629      H3634   1.083       .  S
C3630      C3631   1.424       .  A
C3631      C3632   1.410       .  A
C3631      C3635   1.506       .  S
C3632      H3636   1.084       .  S
C3633      H3643   1.111       .  S
C3633      H3644   1.110       .  S
C3633      H3645   1.110       .  S
C3635      H3646   1.108       .  S
C3635      H3647   1.110       .  S
C3635      H3648   1.111       .  S
C3649      C3650   1.401   1_655  A
C3649      C3654   1.409       .  A
C3649      H3659   1.084       .  S
C3650      C3655   1.487       .  S
C3650      C3651   1.410   1_455  A
C3651      C3652   1.403       .  A
C3651      C3656   1.508   1_655  S
C3652      C3653   1.409       .  A
C3652      H3657   1.084       .  S
C3653      C3654   1.422       .  A
C3654      C3658   1.506       .  S
C3655      C3660   1.411       .  A
C3655      C3664   1.401       .  A
C3656      H3672   1.110       .  S
C3656      H3673   1.110       .  S
C3656      H3674   1.111       .  S
C3658      H3669   1.110       .  S
C3658      H3670   1.111       .  S
C3658      H3671   1.107       .  S
C3660      C3661   1.405       .  A
C3660      C3665   1.506       .  S
C3661      C3662   1.406       .  A
C3661      H3666   1.084       .  S
C3662      C3663   1.420       .  A
C3663      C3664   1.405       .  A
C3663      C3667   1.508       .  S
C3664      H3668   1.085       .  S
C3665      H3675   1.111       .  S
C3665      H3676   1.110       .  S
C3665      H3677   1.110       .  S
C3667      H3678   1.110       .  S
C3667      H3679   1.104       .  S
C3667      H3680   1.111       .  S
C3681      C3682   1.405       .  A
C3681      C3686   1.409       .  A
C3681      H3691   1.084       .  S
C3682      C3687   1.488       .  S
C3682      C3683   1.411       .  A
C3683      C3684   1.405       .  A
C3683      C3688   1.508       .  S
C3684      C3685   1.406       .  A
C3684      H3689   1.085       .  S
C3685      C3686   1.415       .  A
C3686      C3690   1.506       .  S
C3687      C3692   1.410       .  A
C3687      C3696   1.405       .  A
C3688      H3704   1.110       .  S
C3688      H3705   1.109       .  S
C3688      H3706   1.111       .  S
C3690      H3701   1.111       .  S
C3690      H3702   1.110       .  S
C3690      H3703   1.109       .  S
C3692      C3693   1.404       .  A
C3692      C3697   1.507       .  S
C3693      C3694   1.407       .  A
C3693      H3698   1.084       .  S
C3694      C3695   1.417       .  A
C3695      C3696   1.411       .  A
C3695      C3699   1.507   1_554  S
C3696      H3700   1.084       .  S
C3697      H3707   1.111       .  S
C3697      H3708   1.110       .  S
C3697      H3709   1.109       .  S
C3699      H3710   1.111       .  S
C3699      H3711   1.109       .  S
C3699      H3712   1.110       .  S
C3713      C3714   1.401       .  A
C3713      C3718   1.407       .  A
C3713      H3723   1.084       .  S
C3714      C3719   1.484       .  S
C3714      C3715   1.412       .  A
C3715      C3716   1.403       .  A
C3715      C3720   1.508       .  S
C3716      C3717   1.403       .  A
C3716      H3721   1.084       .  S
C3717      C3718   1.419       .  A
C3718      C3722   1.507       .  S
C3719      C3724   1.414       .  A
C3719      C3728   1.399       .  A
C3720      H3736   1.110       .  S
C3720      H3737   1.109       .  S
C3720      H3738   1.111       .  S
C3722      H3733   1.111       .  S
C3722      H3734   1.110       .  S
C3722      H3735   1.105       .  S
C3724      C3725   1.407       .  A
C3724      C3729   1.506       .  S
C3725      C3726   1.402       .  A
C3725      H3730   1.084       .  S
C3726      C3727   1.417       .  A
C3727      C3728   1.402       .  A
C3727      C3731   1.507       .  S
C3728      H3732   1.084       .  S
C3729      H3739   1.111       .  S
C3729      H3740   1.110       .  S
C3729      H3741   1.109       .  S
C3731      H3742   1.110       .  S
C3731      H3743   1.107       .  S
C3731      H3744   1.110       .  S
C3745      C3746   1.402       .  A
C3745      C3750   1.407       .  A
C3745      H3755   1.084       .  S
C3746      C3751   1.485       .  S
C3746      C3747   1.410       .  A
C3747      C3748   1.404       .  A
C3747      C3752   1.506       .  S
C3748      C3749   1.406       .  A
C3748      H3753   1.084       .  S
C3749      C3750   1.418       .  A
C3750      C3754   1.508       .  S
C3751      C3756   1.409       .  A
C3751      C3760   1.398       .  A
C3752      H3768   1.110       .  S
C3752      H3769   1.110       .  S
C3752      H3770   1.111       .  S
C3754      H3765   1.111       .  S
C3754      H3766   1.111       .  S
C3754      H3767   1.110       .  S
C3756      C3757   1.409       .  A
C3756      C3761   1.505       .  S
C3757      C3758   1.412       .  A
C3757      H3762   1.083       .  S
C3758      C3759   1.424       .  A
C3759      C3760   1.403       .  A
C3759      C3763   1.509       .  S
C3760      H3764   1.085       .  S
C3761      H3771   1.111       .  S
C3761      H3772   1.110       .  S
C3761      H3773   1.110       .  S
C3763      H3774   1.111       .  S
C3763      H3775   1.110       .  S
C3763      H3776   1.110       .  S
C3777      C3778   1.399       .  A
C3777      C3782   1.404       .  A
C3777      H3787   1.085   1_655  S
C3778      C3783   1.477   1_655  S
C3778      C3779   1.406       .  A
C3779      C3780   1.402       .  A
C3779      C3784   1.506       .  S
C3780      C3781   1.411       .  A
C3780      H3785   1.084       .  S
C3781      C3782   1.422       .  A
C3782      C3786   1.508       .  S
C3783      C3788   1.410       .  A
C3783      C3792   1.399       .  A
C3784      H3800   1.110       .  S
C3784      H3801   1.110       .  S
C3784      H3802   1.111       .  S
C3786      H3797   1.110       .  S
C3786      H3798   1.111       .  S
C3786      H3799   1.110       .  S
C3788      C3789   1.404       .  A
C3788      C3793   1.506       .  S
C3789      C3790   1.405       .  A
C3789      H3794   1.084       .  S
C3790      C3791   1.417       .  A
C3791      C3792   1.401       .  A
C3791      C3795   1.508       .  S
C3792      H3796   1.085       .  S
C3793      H3803   1.111       .  S
C3793      H3804   1.110       .  S
C3793      H3805   1.110       .  S
C3795      H3806   1.110       .  S
C3795      H3807   1.108       .  S
C3795      H3808   1.111       .  S
C3809      C3810   1.395       .  A
C3809      C3814   1.395       .  A
C3809      H3819   1.085       .  S
C3810      C3815   1.477       .  S
C3810      C3811   1.413       .  A
C3811      C3812   1.407       .  A
C3811      C3816   1.506       .  S
C3812      C3813   1.404       .  A
C3812      H3817   1.084       .  S
C3813      C3814   1.420       .  A
C3814      C3818   1.510       .  S
C3815      C3820   1.411       .  A
C3815      C3824   1.401       .  A
C3816      H3832   1.110       .  S
C3816      H3833   1.110       .  S
C3816      H3834   1.111       .  S
C3818      H3829   1.111       .  S
C3818      H3830   1.110       .  S
C3818      H3831   1.103       .  S
C3820      C3821   1.400       .  A
C3820      C3825   1.508       .  S
C3821      C3822   1.403       .  A
C3821      H3826   1.084       .  S
C3822      C3823   1.417       .  A
C3823      C3824   1.403       .  A
C3823      C3827   1.509       .  S
C3824      H3828   1.085       .  S
C3825      H3835   1.111       .  S
C3825      H3836   1.109       .  S
C3825      H3837   1.110       .  S
C3827      H3838   1.110       .  S
C3827      H3839   1.106       .  S
C3827      H3840   1.111       .  S
C3841      C3842   1.405       .  A
C3841      C3846   1.408       .  A
C3841      H3851   1.084       .  S
C3842      C3847   1.480       .  S
C3842      C3843   1.408       .  A
C3843      C3844   1.399       .  A
C3843      C3848   1.507       .  S
C3844      C3845   1.406       .  A
C3844      H3849   1.085       .  S
C3845      C3846   1.413       .  A
C3846      C3850   1.505       .  S
C3847      C3852   1.412       .  A
C3847      C3856   1.399       .  A
C3848      H3864   1.110       .  S
C3848      H3865   1.110       .  S
C3848      H3866   1.111       .  S
C3850      H3861   1.111       .  S
C3850      H3862   1.110       .  S
C3850      H3863   1.110       .  S
C3852      C3853   1.406       .  A
C3852      C3857   1.506       .  S
C3853      C3854   1.403       .  A
C3853      H3858   1.084       .  S
C3854      C3855   1.416       .  A
C3855      C3856   1.401       .  A
C3855      C3859   1.509       .  S
C3856      H3860   1.085       .  S
C3857      H3867   1.111       .  S
C3857      H3868   1.110       .  S
C3857      H3869   1.110       .  S
C3859      H3870   1.110       .  S
C3859      H3871   1.108       .  S
C3859      H3872   1.111       .  S
C3873      C3874   1.401       .  A
C3873      C3878   1.412       .  A
C3873      H3883   1.084       .  S
C3874      C3879   1.489       .  S
C3874      C3875   1.408       .  A
C3875      C3876   1.403       .  A
C3875      C3880   1.508       .  S
C3876      C3877   1.413       .  A
C3876      H3881   1.083       .  S
C3877      C3878   1.426       .  A
C3878      C3882   1.506       .  S
C3879      C3884   1.413       .  A
C3879      C3888   1.394       .  A
C3880      H3896   1.110       .  S
C3880      H3897   1.110       .  S
C3880      H3898   1.111       .  S
C3882      H3893   1.109       .  S
C3882      H3894   1.111       .  S
C3882      H3895   1.110       .  S
C3884      C3885   1.414       .  A
C3884      C3889   1.505       .  S
C3885      C3886   1.407       .  A
C3885      H3890   1.084       .  S
C3886      C3887   1.428       .  A
C3887      C3888   1.400       .  A
C3887      C3891   1.510       .  S
C3888      H3892   1.085       .  S
C3889      H3899   1.111       .  S
C3889      H3900   1.110       .  S
C3889      H3901   1.111       .  S
C3891      H3902   1.111       .  S
C3891      H3903   1.098       .  S
C3891      H3904   1.110       .  S
