geometry optimzed in LAMMPS
_audit_creation_date              2020-12-01 
_audit_creation_method            'lammps2cif' 
_symmetry_space_group_name_H-M    'P1' 
_symmetry_Int_Tables_number       1 
_symmetry_cell_setting            triclinic 
loop_ 
_symmetry_equiv_pos_as_xyz 
  x,y,z 
_cell_length_a                    39.66407323 
_cell_length_b                    39.72601989409771 
_cell_length_c                    22.910475574971965 
_cell_angle_alpha                 89.76001518577948 
_cell_angle_beta                  90.19888062551117 
_cell_angle_gamma                 90.05580688644976 
loop_ 
_atom_site_label 
_atom_site_type_symbol 
_atom_site_fract_x 
_atom_site_fract_y 
_atom_site_fract_z 
_atom_site_charge 
O1          O  0.80630247  0.38275535  0.43269184    -0.79800
O2          O  0.95844463  0.38246091  0.40579393    -0.64400
O3          O  0.86727452  0.35162925  0.41777676    -1.11000
C4          C  0.88904140  0.36402175  0.62054075     1.07100
O5          O  0.97233008  0.34280037  0.46920506    -0.77700
O6          O  0.92873342  0.30681117  0.53422743    -0.65200
Ni7        Ni  0.83311025  0.36994944  0.36827406     1.34900
C8          C  0.89950681  0.29405923  0.53134147     0.85900
O9          O  0.91240928  0.36435677  0.32531240    -0.78200
O10         O  0.85779565  0.35889134  0.29991064    -0.88500
C11         C  0.98051846  0.36374435  0.42963336     0.85400
O12         O  0.84856022  0.41523795  0.36407573    -0.66700
O13         O  0.91987152  0.35946818  0.60667287    -0.86000
C14         C  0.87471906  0.43060875  0.38163580     0.86300
C15         C  0.88899128  0.36052552  0.28743087     1.07800
H16         H  0.91067707  0.39589057  0.50217053     0.39600
O17         O  0.90990724  0.37230399  0.49212136    -1.08600
O18         O  0.87319297  0.31081683  0.51739280    -0.65300
Ni19       Ni  0.86419160  0.35818470  0.50097076     1.26300
O20         O  0.90015754  0.41545693  0.40303451    -0.65500
O21         O  0.86456947  0.36557433  0.58385856    -0.77800
C22         C  0.79569386  0.36182223  0.46987344     0.85700
O23         O  0.81655360  0.34668881  0.50343910    -0.65000
Ni24       Ni  0.94466621  0.35186091  0.53633164     1.27400
Ni25       Ni  0.91212465  0.36836316  0.40918494     1.26100
H26         H  0.86788509  0.32772913  0.41032221     0.40200
O27         O  0.80716654  0.37985917  0.92730210    -0.79800
O28         O  0.96145276  0.38387109  0.91134670    -0.64400
O29         O  0.87039480  0.35158687  0.91524368    -1.11000
C30         C  0.88563226  0.36219363  0.12021756     1.07100
O31         O  0.97430695  0.34499593  0.97693595    -0.77700
O32         O  0.93006376  0.30782261  0.03809782    -0.65200
Ni33       Ni  0.83674121  0.36990090  0.86493126     1.34900
C34         C  0.90159494  0.29406821  0.03061355     0.85900
O35         O  0.91787031  0.36558425  0.82646636    -0.78200
O36         O  0.86357767  0.36161303  0.79834579    -0.88500
C37         C  0.98318245  0.36580889  0.93766688     0.85400
O38         O  0.85089389  0.41558699  0.86598273    -0.66700
O39         O  0.91707867  0.36000627  0.10897217    -0.86000
C40         C  0.87709006  0.43106169  0.88310972     0.86300
C41         C  0.89492647  0.36294598  0.78733234     1.07800
H42         H  0.90989684  0.39627582  0.00362631     0.39600
O43         O  0.91037217  0.37270689  0.99340457    -1.08600
O44         O  0.87548033  0.30980322  0.01282960    -0.65300
Ni45       Ni  0.86500238  0.35680365  0.99812350     1.26300
O46         O  0.90291944  0.41607051  0.90339316    -0.65500
O47         O  0.86237933  0.36275574  0.08129102    -0.77800
C48         C  0.79714437  0.35813212  0.96364982     0.85700
O49         O  0.81821829  0.34307777  0.99665185    -0.65000
Ni50       Ni  0.94430446  0.35337794  0.04109833     1.27400
Ni51       Ni  0.91522223  0.36913788  0.91052670     1.26100
H52         H  0.87160925  0.32782744  0.90671858     0.40200
O53         O  0.79045890  0.13815447  0.23500727    -0.79800
O54         O  0.95058727  0.13405735  0.25299983    -0.64400
O55         O  0.85711406  0.15691587  0.24131254    -1.11000
C56         C  0.88128708  0.13856148  0.03708852     1.07100
O57         O  0.95904728  0.17304894  0.18611370    -0.77700
O58         O  0.91597285  0.19842129  0.10413709    -0.65200
Ni59       Ni  0.82622907  0.13217604  0.28918578     1.34900
C60         C  0.88791966  0.21221418  0.11513886     0.85900
O61         O  0.90402813  0.15197163  0.33234233    -0.78200
O62         O  0.85652254  0.12501496  0.35377159    -0.88500
C63         C  0.97035747  0.15384174  0.22600952     0.85400
O64         O  0.83877317  0.09052219  0.25479548    -0.66700
O65         O  0.91237354  0.13915017  0.05192977    -0.86000
C66         C  0.86828368  0.07800657  0.25645442     0.86300
C67         C  0.88376116  0.13916706  0.36920230     1.07800
H68         H  0.90140209  0.11277529  0.16043753     0.39600
O69         O  0.90064750  0.13670686  0.16759275    -1.08600
O70         O  0.86454558  0.19747879  0.14354974    -0.65300
Ni71       Ni  0.85529520  0.15010974  0.15730000     1.26300
O72         O  0.89473304  0.09617798  0.26180313    -0.65500
O73         O  0.85667265  0.14263302  0.07306118    -0.77800
C74         C  0.78503641  0.15370011  0.18749661     0.85700
O75         O  0.80827990  0.16197768  0.15177893    -0.65000
Ni76       Ni  0.93485059  0.15538962  0.12011438     1.27400
Ni77       Ni  0.90328897  0.14409277  0.24970841     1.26100
H78         H  0.85490489  0.18057540  0.25012167     0.40200
O79         O  0.79200839  0.13848749  0.74275221    -0.67000
O80         O  0.95290821  0.13340817  0.74876331    -0.64400
O81         O  0.85905917  0.15610597  0.74230051    -1.11000
C82         C  0.87867517  0.13687081  0.53722807     1.07100
O83         O  0.96032477  0.17206086  0.68076830    -0.77700
O84         O  0.91457673  0.19810533  0.60364700    -0.65200
Ni85       Ni  0.82943545  0.13174186  0.79313772     1.34900
C86         C  0.88602878  0.21106145  0.61423391     0.85900
O87         O  0.90783258  0.15190493  0.83103683    -0.78200
O88         O  0.86156318  0.12367157  0.85441814    -0.88500
C89         C  0.97228351  0.15292252  0.72024955     0.85400
O90         O  0.84074204  0.09029103  0.75691757    -0.66700
O91         O  0.90998971  0.13915808  0.54983340    -0.86000
C92         C  0.87018608  0.07753176  0.75726447     0.86300
C93         C  0.88823097  0.13904507  0.86897094     1.07800
H94         H  0.90252293  0.11184671  0.65946861     0.39600
O95         O  0.90131730  0.13578484  0.66640438    -1.08600
O96         O  0.86285173  0.19546280  0.64187764    -0.65300
Ni97       Ni  0.85538210  0.14797826  0.65867648     1.26300
O98         O  0.89689650  0.09552835  0.76124822    -0.65500
O99         O  0.85481970  0.13940178  0.57494612    -0.77800
C100        C  0.78544512  0.15110873  0.69316752     0.85700
O101        O  0.80792023  0.15811611  0.65528711    -0.65000
Ni102      Ni  0.93412577  0.15496045  0.61658193     1.27400
Ni103      Ni  0.90549455  0.14347338  0.74826730     1.26100
H104        H  0.85693116  0.17987608  0.75023843     0.40200
O105        O  0.33223407  0.47298651  0.08156435    -0.79800
O106        O  0.33503002  0.32206233  0.10431482    -0.64400
O107        O  0.36639268  0.41283800  0.09619820    -1.11000
C108        C  0.36017166  0.39661752  0.89237273     1.07100
O109        O  0.37219901  0.30777607  0.03734929    -0.77700
O110        O  0.41354886  0.35378625  0.99165874    -0.65200
Ni111      Ni  0.34939013  0.44659953  0.14570406     1.34900
C112        C  0.42596001  0.38305737  0.99751290     0.85900
O113        O  0.35562801  0.36739152  0.18776511    -0.78200
O114        O  0.36543353  0.42183430  0.21164796    -0.88500
C115        C  0.34864277  0.29994173  0.07198265     0.85400
O116        O  0.30550660  0.42899734  0.16195905    -0.66700
O117        O  0.36743358  0.36629461  0.90531249    -0.86000
C118        C  0.28990778  0.40259096  0.14640598     0.86300
C119        C  0.36222014  0.39071041  0.22491116     1.07800
H120        H  0.32241833  0.37036407  0.00924287     0.39600
O121        O  0.34599278  0.37149634  0.01979778    -1.08600
O122        O  0.40789062  0.40931032  0.00313072    -0.65300
Ni123      Ni  0.36007211  0.41738198  0.01370828     1.26300
O124        O  0.30316023  0.38036470  0.11366421    -0.65500
O125        O  0.35403643  0.41924804  0.93037439    -0.77800
C126        C  0.35097159  0.48433310  0.04106405     0.85700
O127        O  0.37046607  0.46471344  0.01329915    -0.65000
Ni128      Ni  0.36908254  0.33884416  0.97404373     1.27400
Ni129      Ni  0.35017461  0.36817617  0.10345377     1.26100
H130        H  0.39030960  0.41196440  0.10418446     0.40200
O131        O  0.32888959  0.47235377  0.57966204    -0.79800
O132        O  0.33539225  0.32156237  0.60591405    -0.64400
O133        O  0.36425315  0.41310850  0.59623808    -1.11000
C134        C  0.35960482  0.39550078  0.39220789     1.07100
O135        O  0.37265134  0.30783508  0.53882158    -0.77700
O136        O  0.41267553  0.35401963  0.49120812    -0.65200
Ni137      Ni  0.34642477  0.44689309  0.64461675     1.34900
C138        C  0.42490108  0.38324275  0.49866719     0.85900
O139        O  0.35482774  0.36796974  0.68836142    -0.78200
O140        O  0.36264088  0.42289908  0.71139873    -0.88500
C141        C  0.34943526  0.29962014  0.57380500     0.85400
O142        O  0.30308764  0.42842267  0.66021834    -0.66700
O143        O  0.36598831  0.36505254  0.40551136    -0.86000
C144        C  0.28818428  0.40139238  0.64612184     0.86300
C145        C  0.36068553  0.39170740  0.72507537     1.07800
H146        H  0.32152650  0.36951482  0.50983857     0.39600
O147        O  0.34508699  0.37092690  0.52030579    -1.08600
O148        O  0.40668689  0.40936848  0.50502609    -0.65300
Ni149      Ni  0.35862384  0.41703187  0.51358437     1.26300
O150        O  0.30193025  0.37890424  0.61455530    -0.65500
O151        O  0.35372801  0.41838985  0.42990051    -0.77800
C152        C  0.34780321  0.48400754  0.53971796     0.85700
O153        O  0.36803585  0.46466325  0.51280192    -0.65000
Ni154      Ni  0.36840485  0.33824558  0.47484218     1.27400
Ni155      Ni  0.34926056  0.36808192  0.60413826     1.26100
H156        H  0.38811551  0.41285153  0.60482037     0.40200
O157        O  0.15959286  0.48524219  0.29437991    -0.79800
O158        O  0.15723732  0.33106227  0.26355991    -0.64400
O159        O  0.12963547  0.42323600  0.27156611    -1.11000
C160        C  0.13786258  0.40449700  0.47695313     1.07100
O161        O  0.12098784  0.31814782  0.33295608    -0.77700
O162        O  0.08468780  0.36162889  0.39406677    -0.65200
Ni163      Ni  0.15053034  0.45775109  0.22726901     1.34900
C164        C  0.06970834  0.38853626  0.37908384     0.85900
O165        O  0.13884088  0.37755574  0.18133802    -0.78200
O166        O  0.14321485  0.43272730  0.15717515    -0.88500
C167        C  0.14224163  0.30924796  0.29505823     0.85400
O168        O  0.19582056  0.44234190  0.22925079    -0.66700
O169        O  0.13798378  0.37320395  0.46533013    -0.86000
C170        C  0.20878644  0.41343140  0.23495794     0.86300
C171        C  0.14006496  0.40165926  0.14401260     1.07800
H172        H  0.17331747  0.38202693  0.35725817     0.39600
O173        O  0.14954275  0.38133513  0.34812215    -1.08600
O174        O  0.08531120  0.41450788  0.36063909    -0.65300
Ni175      Ni  0.13271340  0.42624722  0.35457476     1.26300
O176        O  0.19220291  0.38753205  0.25143224    -0.65500
O177        O  0.13625733  0.42766628  0.43828397    -0.77800
C178        C  0.13790814  0.49410372  0.33188783     0.85700
O179        O  0.11875803  0.47246461  0.35568671    -0.65000
Ni180      Ni  0.13036253  0.34722972  0.39675681     1.27400
Ni181      Ni  0.14462725  0.37793361  0.26469725     1.26100
H182        H  0.10610208  0.42356339  0.26052424     0.40200
O183        O  0.15806318  0.48713820  0.79009288    -0.79800
O184        O  0.15709163  0.33237164  0.76417011    -0.64400
O185        O  0.12877086  0.42431773  0.77247839    -1.11000
C186        C  0.14241748  0.40669638  0.97732597     1.07100
O187        O  0.12299567  0.31899884  0.83666244    -0.77700
O188        O  0.08771672  0.36317931  0.89949528    -0.65200
Ni189      Ni  0.14763606  0.45861077  0.72496714     1.34900
C190        C  0.07227848  0.38995365  0.88490677     0.85900
O191        O  0.13644118  0.37780756  0.68250555    -0.78200
O192        O  0.13898404  0.43268176  0.65617277    -0.88500
C193        C  0.14291559  0.31037258  0.79640227     0.85400
O194        O  0.19308660  0.44381828  0.72463875    -0.66700
O195        O  0.14288047  0.37544976  0.96573449    -0.86000
C196        C  0.20672998  0.41528554  0.73139376     0.86300
C197        C  0.13636597  0.40139808  0.64422114     1.07800
H198        H  0.17502232  0.38400279  0.85551725     0.39600
O199        O  0.15104295  0.38307910  0.84821997    -1.08600
O200        O  0.08726811  0.41589956  0.86501261    -0.65300
Ni201      Ni  0.13422234  0.42797759  0.85521772     1.26300
O202        O  0.19098466  0.38924917  0.74934698    -0.65500
O203        O  0.13977943  0.42986368  0.93876465    -0.77800
C204        C  0.13784037  0.49586734  0.83003663     0.85700
O205        O  0.12001550  0.47414967  0.85661967    -0.65000
Ni206      Ni  0.13361487  0.34899498  0.89873932     1.27400
Ni207      Ni  0.14401495  0.37907021  0.76544388     1.26100
H208        H  0.10494562  0.42423179  0.76354357     0.40200
O209        O  0.18224526  0.63332995  0.43113673    -0.79800
O210        O  0.02854959  0.63066848  0.40792648    -0.64400
O211        O  0.11976612  0.66182857  0.41611548    -1.11000
C212        C  0.10234396  0.64824892  0.62044428     1.07100
O213        O  0.01581555  0.66876475  0.47418748    -0.77700
O214        O  0.05905657  0.70382116  0.54003035    -0.65200
Ni215      Ni  0.15376469  0.64359419  0.36709732     1.34900
C216        C  0.08719577  0.71807294  0.53199120     0.85900
O217        O  0.07307905  0.64976082  0.32545958    -0.78200
O218        O  0.12770056  0.65225741  0.29918736    -0.88500
C219        C  0.00695943  0.64880689  0.43384629     0.85400
O220        O  0.13945109  0.59799556  0.36752086    -0.66700
O221        O  0.07092736  0.64976338  0.60817328    -0.86000
C222        C  0.11270441  0.58268064  0.38219316     0.86300
C223        C  0.09638764  0.65207314  0.28717331     1.07800
H224        H  0.07949841  0.61617238  0.50165573     0.39600
O225        O  0.07901413  0.63990203  0.49226063    -1.08600
O226        O  0.11336132  0.70280115  0.51367555    -0.65300
Ni227      Ni  0.12423166  0.65587841  0.49922465     1.26300
O228        O  0.08667381  0.59778073  0.40094951    -0.65500
O229        O  0.12593239  0.64907552  0.58240373    -0.77800
C230        C  0.19209897  0.65544406  0.46666783     0.85700
O231        O  0.17094844  0.66987463  0.49986662    -0.65000
Ni232      Ni  0.04463707  0.65832198  0.53941427     1.27400
Ni233      Ni  0.07490711  0.64478896  0.40932625     1.26100
H234        H  0.11888171  0.68566489  0.40777977     0.40200
O235        O  0.18366503  0.63422675  0.93311530    -0.79800
O236        O  0.03081352  0.63138583  0.90758223    -0.64400
O237        O  0.12176070  0.66350186  0.91695535    -1.11000
C238        C  0.10206688  0.65214297  0.12052166     1.07100
O239        O  0.01741667  0.67120152  0.97007218    -0.77700
O240        O  0.06039408  0.70799237  0.03320922    -0.65200
Ni241      Ni  0.15592847  0.64505329  0.86829241     1.34900
C242        C  0.08929367  0.72117806  0.02884229     0.85900
O243        O  0.07596086  0.64938258  0.82568415    -0.78200
O244        O  0.13045094  0.65407602  0.79950005    -0.88500
C245        C  0.00883588  0.64975393  0.93194746     0.85400
O246        O  0.14118930  0.59954697  0.86765872    -0.66700
O247        O  0.07103467  0.65595036  0.10697924    -0.86000
C248        C  0.11484492  0.58416623  0.88424583     0.86300
C249        C  0.09916886  0.65224306  0.78738474     1.07800
H250        H  0.07998825  0.61912312  0.00357562     0.39600
O251        O  0.08017748  0.64265375  0.99273142    -1.08600
O252        O  0.11570362  0.70490027  0.01469759    -0.65300
Ni253      Ni  0.12564288  0.65778653  0.00035181     1.26300
O254        O  0.08925077  0.59918321  0.90467779    -0.65500
O255        O  0.12623773  0.65106816  0.08353627    -0.77800
C256        C  0.19382554  0.65623924  0.96856912     0.85700
O257        O  0.17279193  0.67085593  0.00186130    -0.65000
Ni258      Ni  0.04550857  0.66274772  0.03692109     1.27400
Ni259      Ni  0.07701984  0.64610301  0.90968978     1.26100
H260        H  0.12080929  0.68730520  0.90839087     0.40200
O261        O  0.19542890  0.87331062  0.24203119    -0.79800
O262        O  0.03504696  0.87970481  0.24830809    -0.64400
O263        O  0.12837278  0.85653658  0.24128192    -1.11000
C264        C  0.10769748  0.87584468  0.03601153     1.07100
O265        O  0.02615289  0.84137086  0.18058446    -0.77700
O266        O  0.07183685  0.81506344  0.10400265    -0.65200
Ni267      Ni  0.15823538  0.88054082  0.29204726     1.34900
C268        C  0.10055950  0.80228479  0.11438150     0.85900
O269        O  0.08010277  0.86055841  0.32989542    -0.78200
O270        O  0.12626606  0.88901306  0.35276555    -0.88500
C271        C  0.01522587  0.86005804  0.22127012     0.85400
O272        O  0.14723173  0.92211109  0.25512047    -0.66700
O273        O  0.07640408  0.87365762  0.04863377    -0.86000
C274        C  0.11787728  0.93509795  0.25510748     0.86300
C275        C  0.09971855  0.87358692  0.36755562     1.07800
H276        H  0.08453444  0.90121269  0.15830366     0.39600
O277        O  0.08573309  0.87726033  0.16542775    -1.08600
O278        O  0.12389111  0.81774492  0.14170129    -0.65300
Ni279      Ni  0.13163036  0.86497494  0.15770870     1.26300
O280        O  0.09107687  0.91726674  0.25981429    -0.65500
O281        O  0.13168105  0.87351337  0.07386562    -0.77800
C282        C  0.20180490  0.86120603  0.19225357     0.85700
O283        O  0.17913737  0.85466689  0.15421840    -0.65000
Ni284      Ni  0.05244947  0.85824298  0.11603581     1.27400
Ni285      Ni  0.08212847  0.86934895  0.24728683     1.26100
H286        H  0.13041047  0.83272724  0.24933723     0.40200
O287        O  0.19770579  0.87444042  0.73500299    -0.79800
O288        O  0.03758873  0.87960703  0.74918659    -0.64400
O289        O  0.13085005  0.85584481  0.73982691    -1.11000
C290        C  0.10719935  0.87447490  0.53514457     1.07100
O291        O  0.02891951  0.84040459  0.68323579    -0.77700
O292        O  0.07251439  0.81448055  0.60254327    -0.65200
Ni293      Ni  0.16186722  0.87962843  0.78892848     1.34900
C294        C  0.10075445  0.80085205  0.61361769     0.85900
O295        O  0.08322859  0.86097977  0.82989505    -0.78200
O296        O  0.13155122  0.88589691  0.85331076    -0.88500
C297        C  0.01769528  0.85987033  0.72248212     0.85400
O298        O  0.14980632  0.92211353  0.75622216    -0.66700
O299        O  0.07612420  0.87376070  0.54949365    -0.86000
C300        C  0.12037014  0.93485874  0.75582361     0.86300
C301        C  0.10357605  0.87285758  0.86758373     1.07800
H302        H  0.08689602  0.90035021  0.65760495     0.39600
O303        O  0.08765593  0.87640940  0.66508260    -1.08600
O304        O  0.12411468  0.81572526  0.64188706    -0.65300
Ni305      Ni  0.13303430  0.86306394  0.65576832     1.26300
O306        O  0.09367157  0.91687703  0.75910964    -0.65500
O307        O  0.13182103  0.87068133  0.57150777    -0.77800
C308        C  0.20333487  0.85995107  0.68683375     0.85700
O309        O  0.18014577  0.85159808  0.65093148    -0.65000
Ni310      Ni  0.05352162  0.85765455  0.61738658     1.27400
Ni311      Ni  0.08470356  0.86904058  0.74717869     1.26100
H312        H  0.13270183  0.83209383  0.74851107     0.40200
O313        O  0.65745213  0.54383062  0.08562211    -0.79800
O314        O  0.65295330  0.69505188  0.10979149    -0.64400
O315        O  0.62286182  0.60375911  0.10096789    -1.11000
C316        C  0.62855508  0.62106546  0.89710363     1.07100
O317        O  0.61664579  0.70990992  0.04097950    -0.77700
O318        O  0.57538680  0.66354455  0.99529563    -0.65200
Ni319      Ni  0.64066220  0.56977858  0.14998747     1.34900
C320        C  0.56296422  0.63424178  0.00124015     0.85900
O321        O  0.63321494  0.64880892  0.19276602    -0.78200
O322        O  0.62526718  0.59393666  0.21653299    -0.88500
C323        C  0.63954975  0.71745607  0.07727075     0.85400
O324        O  0.68438470  0.58776996  0.16448773    -0.66700
O325        O  0.62160530  0.65136971  0.90995757    -0.86000
C326        C  0.69943526  0.61465732  0.14980489     0.86300
C327        C  0.62749175  0.62506962  0.22984199     1.07800
H328        H  0.66631793  0.64700732  0.01468606     0.39600
O329        O  0.64272809  0.64579417  0.02482976    -1.08600
O330        O  0.58101593  0.60795808  0.00769796    -0.65300
Ni331      Ni  0.62887907  0.59976340  0.01850994     1.26300
O332        O  0.68561637  0.63744263  0.11866168    -0.65500
O333        O  0.63465292  0.59824998  0.93517943    -0.77800
C334        C  0.63845148  0.53253595  0.04544204     0.85700
O335        O  0.61866715  0.55227076  0.01795136    -0.65000
Ni336      Ni  0.61987076  0.67863799  0.97838140     1.27400
Ni337      Ni  0.63846381  0.64869128  0.10842829     1.26100
H338        H  0.59897172  0.60419635  0.10902067     0.40200
O339        O  0.65593021  0.54447573  0.58808858    -0.79800
O340        O  0.65252988  0.69540559  0.60805837    -0.64400
O341        O  0.62143830  0.60444835  0.60126893    -1.11000
C342        C  0.62776289  0.61980485  0.39730878     1.07100
O343        O  0.61654358  0.71041165  0.53842918    -0.77700
O344        O  0.57427149  0.66343649  0.49504813    -0.65200
Ni345      Ni  0.63844164  0.57067653  0.65145135     1.34900
C346        C  0.56184982  0.63407494  0.50056538     0.85900
O347        O  0.63241850  0.64976794  0.69234924    -0.78200
O348        O  0.62224093  0.59533043  0.71671828    -0.88500
C349        C  0.63921788  0.71785660  0.57535173     0.85400
O350        O  0.68212234  0.58840463  0.66806204    -0.66700
O351        O  0.62016115  0.65003976  0.40954670    -0.86000
C352        C  0.69786169  0.61472334  0.65242163     0.86300
C353        C  0.62582326  0.62638330  0.72973280     1.07800
H354        H  0.66545434  0.64672758  0.51410946     0.39600
O355        O  0.64188192  0.64565910  0.52431178    -1.08600
O356        O  0.57999134  0.60785011  0.50705868    -0.65300
Ni357      Ni  0.62781311  0.59969410  0.51905427     1.26300
O358        O  0.68476242  0.63699290  0.61902933    -0.65500
O359        O  0.63410751  0.59736355  0.43590693    -0.77800
C360        C  0.63705222  0.53292052  0.54798342     0.85700
O361        O  0.61738995  0.55239752  0.51978519    -0.65000
Ni362      Ni  0.61891634  0.67809861  0.47709162     1.27400
Ni363      Ni  0.63767377  0.64911438  0.60789734     1.26100
H364        H  0.59750904  0.60532932  0.60886222     0.40200
O365        O  0.82880529  0.53011555  0.29545443    -0.79800
O366        O  0.82922270  0.68373946  0.26834663    -0.64400
O367        O  0.85921397  0.59214981  0.27665906    -1.11000
C368        C  0.84897209  0.60896809  0.48142669     1.07100
O369        O  0.86501289  0.69685545  0.33830463    -0.77700
O370        O  0.90274488  0.65303793  0.39658233    -0.65200
Ni371      Ni  0.84055273  0.55773943  0.22966971     1.34900
C372        C  0.91739041  0.62562750  0.38402416     0.85900
O373        O  0.84973720  0.63832373  0.18592244    -0.78200
O374        O  0.85075610  0.58318700  0.16107292    -0.88500
C375        C  0.84299906  0.70557059  0.30130425     0.85400
O376        O  0.79529394  0.57298695  0.22533131    -0.66700
O377        O  0.85059536  0.64022195  0.46964452    -0.86000
C378        C  0.78117711  0.60096534  0.23473936     0.86300
C379        C  0.85180159  0.61451534  0.14838159     1.07800
H380        H  0.81401959  0.63254720  0.36117225     0.39600
O381        O  0.83784844  0.63310850  0.35265499    -1.08600
O382        O  0.90155567  0.59927185  0.36847212    -0.65300
Ni383      Ni  0.85435303  0.58798138  0.35938231     1.26300
O384        O  0.79641216  0.62648484  0.25559114    -0.65500
O385        O  0.84931237  0.58583098  0.44288886    -0.77800
C386        C  0.84984801  0.52028247  0.33363787     0.85700
O387        O  0.86808447  0.54151472  0.36052179    -0.65000
Ni388      Ni  0.85702208  0.66693090  0.40153825     1.27400
Ni389      Ni  0.84339260  0.63721811  0.26943185     1.26100
H390        H  0.88297241  0.59258208  0.26751404     0.40200
O391        O  0.82916097  0.52945686  0.79860383    -0.79800
O392        O  0.82954994  0.68305134  0.76812285    -0.64400
O393        O  0.85891526  0.59140872  0.77623253    -1.11000
C394        C  0.85245996  0.60979880  0.98136994     1.07100
O395        O  0.86722232  0.69588715  0.83523464    -0.77700
O396        O  0.90483765  0.65253343  0.89508178    -0.65200
Ni397      Ni  0.83886891  0.55683738  0.73141825     1.34900
C398        C  0.91951050  0.62533845  0.88136766     0.85900
O399        O  0.84828336  0.63726659  0.68575564    -0.78200
O400        O  0.84697518  0.58206003  0.66147631    -0.88500
C401        C  0.84475261  0.70482505  0.79919248     0.85400
O402        O  0.79346308  0.57186989  0.73082288    -0.66700
O403        O  0.85302770  0.64102620  0.96900365    -0.86000
C404        C  0.77981279  0.60027447  0.73837157     0.86300
C405        C  0.84880223  0.61332426  0.64841146     1.07800
H406        H  0.81555246  0.63219448  0.86258934     0.39600
O407        O  0.83921214  0.63282261  0.85274859    -1.08600
O408        O  0.90360490  0.59922214  0.86485685    -0.65300
Ni409      Ni  0.85614662  0.58790724  0.85931638     1.26300
O410        O  0.79572090  0.62605215  0.75695806    -0.65500
O411        O  0.85313252  0.58642796  0.94322262    -0.77800
C412        C  0.85091566  0.52019004  0.83605772     0.85700
O413        O  0.86999979  0.54162377  0.86050741    -0.65000
Ni414      Ni  0.85927595  0.66693539  0.89989344     1.27400
Ni415      Ni  0.84316324  0.63646812  0.76923226     1.26100
H416        H  0.88242246  0.59163637  0.76531556     0.40200
O417        O  0.66127423  0.98705789  0.04089758    -0.79800
O418        O  0.65820349  0.83253517  0.01217509    -0.64400
O419        O  0.63063808  0.92495224  0.02118706    -1.11000
C420        C  0.64297403  0.90693944  0.22594816     1.07100
O421        O  0.62293708  0.82044399  0.08331067    -0.77700
O422        O  0.58730940  0.86405731  0.14442124    -0.65200
Ni423      Ni  0.65000998  0.95940163  0.97481463     1.34900
C424        C  0.57256406  0.89120803  0.13002986     0.85900
O425        O  0.63809020  0.87905029  0.93042414    -0.78200
O426        O  0.64013494  0.93430330  0.90574886    -0.88500
C427        C  0.64396523  0.81106065  0.04545668     0.85400
O428        O  0.69519546  0.94360644  0.97260745    -0.66700
O429        O  0.64158685  0.87566546  0.21449620    -0.86000
C430        C  0.70866857  0.91498572  0.97959507     0.86300
C431        C  0.63739318  0.90314205  0.89294107     1.07800
H432        H  0.67589022  0.88360828  0.10477528     0.39600
O433        O  0.65196949  0.88323443  0.09681674    -1.08600
O434        O  0.58844780  0.91725121  0.11280452    -0.65300
Ni435      Ni  0.63578367  0.92839675  0.10387912     1.26300
O436        O  0.69272448  0.88920345  0.99821688    -0.65500
O437        O  0.64144554  0.93011253  0.18727931    -0.77800
C438        C  0.64027106  0.99634535  0.07928484     0.85700
O439        O  0.62211760  0.97476487  0.10547559    -0.65000
Ni440      Ni  0.63303251  0.84952764  0.14653796     1.27400
Ni441      Ni  0.64547388  0.87955810  0.01362595     1.26100
H442        H  0.60685060  0.92513566  0.01192883     0.40200
O443        O  0.66009913  0.98913962  0.54134069    -0.79800
O444        O  0.65932684  0.83359264  0.51319944    -0.64400
O445        O  0.63149819  0.92615550  0.52019807    -1.11000
C446        C  0.63889953  0.90794165  0.72589471     1.07100
O447        O  0.62295449  0.82129983  0.58241095    -0.77700
O448        O  0.58638550  0.86506417  0.64215162    -0.65200
Ni449      Ni  0.65250446  0.96039935  0.47532257     1.34900
C450        C  0.57161214  0.89206062  0.62700567     0.85900
O451        O  0.64010088  0.87967126  0.43088628    -0.78200
O452        O  0.64675040  0.93437597  0.40558778    -0.88500
C453        C  0.64446668  0.81197499  0.54535991     0.85400
O454        O  0.69777982  0.94565760  0.48176443    -0.66700
O455        O  0.63915141  0.87669813  0.71418037    -0.86000
C456        C  0.71069610  0.91666750  0.48596374     0.86300
C457        C  0.64233103  0.90335886  0.39303077     1.07800
H458        H  0.67534385  0.88525832  0.60639530     0.39600
O459        O  0.65155437  0.88456782  0.59724714    -1.08600
O460        O  0.58732220  0.91790780  0.60872531    -0.65300
Ni461      Ni  0.63455925  0.92954653  0.60325594     1.26300
O462        O  0.69392871  0.89036587  0.49970905    -0.65500
O463        O  0.63771642  0.93116696  0.68720885    -0.77800
C464        C  0.63851434  0.99759097  0.57924483     0.85700
O465        O  0.62014931  0.97565457  0.60400809    -0.65000
Ni466      Ni  0.63202565  0.85060091  0.64587103     1.27400
Ni467      Ni  0.64646139  0.88064842  0.51391470     1.26100
H468        H  0.60798907  0.92649194  0.50902614     0.40200
O469        O  0.83150217  0.97443253  0.32961712    -0.79800
O470        O  0.84225459  0.82301435  0.36142467    -0.64400
O471        O  0.86739787  0.91551882  0.34605248    -1.11000
C472        C  0.86282967  0.90015120  0.14436843     1.07100
O473        O  0.86050070  0.80576785  0.27404711    -0.77700
O474        O  0.91026100  0.85267840  0.25850561    -0.65200
Ni475      Ni  0.84984450  0.94951725  0.39467815     1.34900
C476        C  0.92392592  0.88166736  0.25649221     0.85900
O477        O  0.86303749  0.87102393  0.43982806    -0.78200
O478        O  0.86701323  0.92649792  0.46189811    -0.88500
C479        C  0.84805170  0.80001179  0.32389974     0.85400
O480        O  0.80670199  0.93083059  0.41203320    -0.66700
O481        O  0.87740466  0.87322397  0.15984668    -0.86000
C482        C  0.79260888  0.90279730  0.40150299     0.86300
C483        C  0.86763968  0.89535291  0.47614886     1.07800
H484        H  0.82136055  0.87122239  0.26456703     0.39600
O485        O  0.84527389  0.87286626  0.27222958    -1.08600
O486        O  0.90672326  0.90880888  0.25127406    -0.65300
Ni487      Ni  0.85902298  0.91873618  0.26422938     1.26300
O488        O  0.80684404  0.87949706  0.37243585    -0.65500
O489        O  0.85016100  0.92017319  0.18152872    -0.77800
C490        C  0.84978496  0.98548799  0.28827510     0.85700
O491        O  0.86973096  0.96585125  0.26158460    -0.65000
Ni492      Ni  0.86842194  0.84215078  0.22232120     1.27400
Ni493      Ni  0.85391694  0.87021659  0.35597831     1.26100
H494        H  0.89146967  0.91610958  0.35256592     0.40200
O495        O  0.83130472  0.97347126  0.82867982    -0.79800
O496        O  0.84270641  0.82204915  0.85846553    -0.64400
O497        O  0.86732982  0.91475194  0.84675353    -1.11000
C498        C  0.86668841  0.90111282  0.64422599     1.07100
O499        O  0.86338955  0.80541864  0.77236554    -0.77700
O500        O  0.91271808  0.85286449  0.75839915    -0.65200
Ni501      Ni  0.84811210  0.94825227  0.89449921     1.34900
C502        C  0.92626563  0.88192041  0.75802388     0.85900
O503        O  0.86121673  0.86949394  0.93924368    -0.78200
O504        O  0.86353671  0.92488357  0.96249040    -0.88500
C505        C  0.84986428  0.79930230  0.82127833     0.85400
O506        O  0.80476886  0.92918639  0.90768076    -0.66700
O507        O  0.88041182  0.87363742  0.65924471    -0.86000
C508        C  0.79120389  0.90102028  0.89644739     0.86300
C509        C  0.86447780  0.89368933  0.97626383     1.07800
H510        H  0.82344667  0.87096560  0.76139501     0.39600
O511        O  0.84718860  0.87256418  0.77055962    -1.08600
O512        O  0.90896900  0.90907733  0.75412459    -0.65300
Ni513      Ni  0.86091261  0.91861697  0.76455232     1.26300
O514        O  0.80633355  0.87780924  0.86848861    -0.65500
O515        O  0.85383504  0.92093593  0.68148044    -0.77800
C516        C  0.85073959  0.98509591  0.78949753     0.85700
O517        O  0.87145312  0.96579017  0.76387714    -0.65000
Ni518      Ni  0.87123735  0.84220196  0.72118993     1.27400
Ni519      Ni  0.85395386  0.86928732  0.85479259     1.26100
H520        H  0.89122177  0.91550996  0.85498322     0.40200
O521        O  0.68208741  0.13788198  0.17518656    -0.79800
O522        O  0.52800350  0.13198056  0.15307979    -0.64400
O523        O  0.61870404  0.16470347  0.16051202    -1.11000
C524        C  0.60027364  0.15248836  0.36493591     1.07100
O525        O  0.51536428  0.17194723  0.21586875    -0.77700
O526        O  0.55777585  0.20750995  0.28357380    -0.65200
Ni527      Ni  0.65300232  0.14708764  0.11135428     1.34900
C528        C  0.58598307  0.22171989  0.27590288     0.85900
O529        O  0.57216270  0.15069224  0.07037565    -0.78200
O530        O  0.62651632  0.15473942  0.04334457    -0.88500
C531        C  0.50641255  0.15106598  0.17697819     0.85400
O532        O  0.63987272  0.10107905  0.11248752    -0.66700
O533        O  0.56892251  0.15361743  0.35197762    -0.86000
C534        C  0.61362753  0.08518386  0.12807353     0.86300
C535        C  0.59515929  0.15343559  0.03176655     1.07800
H536        H  0.57873534  0.11940996  0.24742426     0.39600
O537        O  0.57811221  0.14300334  0.23704326    -1.08600
O538        O  0.61203360  0.20645370  0.25723732    -0.65300
Ni539      Ni  0.62302475  0.15949916  0.24385773     1.26300
O540        O  0.58731275  0.09979219  0.14720498    -0.65500
O541        O  0.62421057  0.15351516  0.32740978    -0.77800
C542        C  0.69114739  0.15984730  0.21167482     0.85700
O543        O  0.66950680  0.17389997  0.24444081    -0.65000
Ni544      Ni  0.54331376  0.16193599  0.28247756     1.27400
Ni545      Ni  0.57420351  0.14670596  0.15410405     1.26100
H546        H  0.61725428  0.18845559  0.15174407     0.40200
O547        O  0.68131694  0.13607024  0.67596207    -0.79800
O548        O  0.52717227  0.13328349  0.65198734    -0.64400
O549        O  0.61833939  0.16479849  0.66161225    -1.11000
C550        C  0.59902597  0.15212028  0.86501755     1.07100
O551        O  0.51420248  0.17292685  0.71531657    -0.77700
O552        O  0.55766296  0.20868066  0.78089824    -0.65200
Ni553      Ni  0.65260198  0.14715633  0.61236754     1.34900
C554        C  0.58660301  0.22173195  0.77554223     0.85900
O555        O  0.57231841  0.15119692  0.57005600    -0.78200
O556        O  0.62676122  0.15643844  0.54424490    -0.88500
C557        C  0.50541439  0.15200405  0.67630974     0.85400
O558        O  0.63814491  0.10160690  0.61178344    -0.66700
O559        O  0.56784019  0.15550521  0.85200207    -0.86000
C560        C  0.61201100  0.08589655  0.62850522     0.86300
C561        C  0.59555172  0.15447808  0.53191695     1.07800
H562        H  0.57646869  0.11998492  0.74739258     0.39600
O563        O  0.57671574  0.14358555  0.73703205    -1.08600
O564        O  0.61260991  0.20543281  0.75961816    -0.65300
Ni565      Ni  0.62216402  0.15842586  0.74467669     1.26300
O566        O  0.58602144  0.10061971  0.64830472    -0.65500
O567        O  0.62295150  0.15136667  0.82763315    -0.77800
C568        C  0.69063832  0.15678996  0.71438070     0.85700
O569        O  0.66906625  0.17125470  0.74667347    -0.65000
Ni570      Ni  0.54228255  0.16343331  0.78211406     1.27400
Ni571      Ni  0.57353034  0.14753618  0.65406222     1.26100
H572        H  0.61730959  0.18867892  0.65368689     0.40200
O573        O  0.69368534  0.38991615  0.46574623    -0.79800
O574        O  0.53715266  0.38482182  0.48971600    -0.64400
O575        O  0.63081943  0.36143013  0.48269462    -1.11000
C576        C  0.61024532  0.37622295  0.27746217     1.07100
O577        O  0.52902006  0.34591315  0.42277952    -0.77700
O578        O  0.57291079  0.31877202  0.34481247    -0.65200
Ni579      Ni  0.66368556  0.38393871  0.52945450     1.34900
C580        C  0.60036562  0.30432999  0.35824331     0.85900
O581        O  0.58329073  0.36905668  0.57253397    -0.78200
O582        O  0.63705718  0.37962407  0.59808997    -0.88500
C583        C  0.51753398  0.36503191  0.46227893     0.85400
O584        O  0.64772563  0.42848049  0.51702612    -0.66700
O585        O  0.57894131  0.37736026  0.29046537    -0.86000
C586        C  0.61852822  0.44076010  0.50915529     0.86300
C587        C  0.60644939  0.37359520  0.61066036     1.07800
H588        H  0.58864271  0.40473165  0.39801491     0.39600
O589        O  0.58860842  0.38087572  0.40637689    -1.08600
O590        O  0.62347003  0.31869111  0.38801956    -0.65300
Ni591      Ni  0.63389092  0.36606616  0.39907408     1.26300
O592        O  0.59254138  0.42270849  0.49959777    -0.65500
O593        O  0.63410715  0.37170775  0.31486368    -0.77800
C594        C  0.70247884  0.36682950  0.43121406     0.85700
O595        O  0.68076311  0.35268250  0.39827178    -0.65000
Ni596      Ni  0.55480543  0.36242305  0.35776883     1.27400
Ni597      Ni  0.58469474  0.37488495  0.48909135     1.26100
H598        H  0.63206489  0.33782079  0.49265201     0.40200
O599        O  0.69602782  0.38621554  0.96761051    -0.79800
O600        O  0.53797810  0.38467623  0.98745535    -0.64400
O601        O  0.63152371  0.36040726  0.98303526    -1.11000
C602        C  0.61210530  0.37498498  0.77755404     1.07100
O603        O  0.53015687  0.34582440  0.92037574    -0.77700
O604        O  0.57410730  0.31896526  0.84257499    -0.65200
Ni605      Ni  0.66417246  0.38317815  0.02968097     1.34900
C606        C  0.60049011  0.30356515  0.85896024     0.85900
O607        O  0.58325544  0.36837866  0.07139066    -0.78200
O608        O  0.63626758  0.38148381  0.09760714    -0.88500
C609        C  0.51844797  0.36498187  0.95955100     0.85400
O610        O  0.64950736  0.42770661  0.01189742    -0.66700
O611        O  0.58097510  0.37814813  0.79043406    -0.86000
C612        C  0.62026047  0.44019952  0.00530168     0.86300
C613        C  0.60582640  0.37433320  0.10989939     1.07800
H614        H  0.59085236  0.40414428  0.89739865     0.39600
O615        O  0.59011845  0.38030379  0.90578101    -1.08600
O616        O  0.62315599  0.31723736  0.89051061    -0.65300
Ni617      Ni  0.63493901  0.36432744  0.89945323     1.26300
O618        O  0.59389301  0.42219852  0.99861414    -0.65500
O619        O  0.63558825  0.36900111  0.81503180    -0.77800
C620        C  0.70364018  0.36364609  0.93103056     0.85700
O621        O  0.68126165  0.34984179  0.89908526    -0.65000
Ni622      Ni  0.55633777  0.36269635  0.85639993     1.27400
Ni623      Ni  0.58547727  0.37436107  0.98815371     1.26100
H624        H  0.63254413  0.33688036  0.99374957     0.40200
O625        O  0.29296191  0.62949626  0.46256112    -0.79800
O626        O  0.44941298  0.63172932  0.48643961    -0.64400
O627        O  0.35610696  0.65671893  0.47987737    -1.11000
C628        C  0.37547601  0.64267724  0.27483551     1.07100
O629        O  0.45796833  0.67090782  0.41962375    -0.77700
O630        O  0.41393620  0.69890440  0.34183809    -0.65200
Ni631      Ni  0.32308969  0.63463894  0.52669699     1.34900
C632        C  0.38702735  0.71392541  0.35610738     0.85900
O633        O  0.40390645  0.64776090  0.56931828    -0.78200
O634        O  0.35008229  0.63849338  0.59563138    -0.88500
C635        C  0.46921214  0.65170217  0.45964580     0.85400
O636        O  0.33804771  0.58968317  0.51438872    -0.66700
O637        O  0.40672212  0.64044608  0.28810922    -0.86000
C638        C  0.36687651  0.57692701  0.50516891     0.86300
C639        C  0.38094197  0.64398785  0.60778579     1.07800
H640        H  0.39692179  0.61320156  0.39490678     0.39600
O641        O  0.39753406  0.63698912  0.40342951    -1.08600
O642        O  0.36392754  0.69993622  0.38620016    -0.65300
Ni643      Ni  0.35257808  0.65278965  0.39626003     1.26300
O644        O  0.39312208  0.59464099  0.49579137    -0.65500
O645        O  0.35185509  0.64796923  0.31198951    -0.77800
C646        C  0.28437945  0.65285723  0.42789845     0.85700
O647        O  0.30613729  0.66711911  0.39539114    -0.65000
Ni648      Ni  0.43146960  0.65494542  0.35493575     1.27400
Ni649      Ni  0.40196059  0.64239003  0.48597657     1.26100
H650        H  0.35537706  0.68027769  0.49002378     0.40200
O651        O  0.29476491  0.62930768  0.95966311    -0.79800
O652        O  0.45082163  0.63272293  0.98749079    -0.64400
O653        O  0.35739054  0.65688296  0.98038279    -1.11000
C654        C  0.37711741  0.64453962  0.77516860     1.07100
O655        O  0.45970334  0.67165679  0.92025431    -0.77700
O656        O  0.41599231  0.70001652  0.84288146    -0.65200
Ni657      Ni  0.32434269  0.63325518  0.02475027     1.34900
C658        C  0.38944207  0.71531772  0.85816084     0.85900
O659        O  0.40454372  0.64751481  0.07017005    -0.78200
O660        O  0.35081639  0.63575606  0.09439011    -0.88500
C661        C  0.47070499  0.65253093  0.96057263     0.85400
O662        O  0.34001961  0.58896030  0.00937518    -0.66700
O663        O  0.40836861  0.64176942  0.78824211    -0.86000
C664        C  0.36926082  0.57673466  0.00236878     0.86300
C665        C  0.38131875  0.64222112  0.10772571     1.07800
H666        H  0.39836619  0.61433515  0.89489434     0.39600
O667        O  0.39916977  0.63806948  0.90381184    -1.08600
O668        O  0.36632176  0.70137358  0.88839885    -0.65300
Ni669      Ni  0.35429484  0.65420268  0.89671098     1.26300
O670        O  0.39538858  0.59493278  0.99536111    -0.65500
O671        O  0.35370967  0.65027675  0.81244712    -0.77800
C672        C  0.28605199  0.65370399  0.92739587     0.85700
O673        O  0.30784481  0.66885163  0.89610609    -0.65000
Ni674      Ni  0.43321914  0.65593038  0.85539406     1.27400
Ni675      Ni  0.40331740  0.64289759  0.98661578     1.26100
H676        H  0.35622968  0.68023826  0.99176444     0.40200
O677        O  0.30497797  0.88118641  0.17634508    -0.79800
O678        O  0.46027585  0.88505727  0.14982450    -0.64400
O679        O  0.36872252  0.85413974  0.16029239    -1.11000
C680        C  0.38967271  0.86635743  0.36394489     1.07100
O681        O  0.47350555  0.84571205  0.21414099    -0.77700
O682        O  0.43091844  0.81026694  0.28107251    -0.65200
Ni683      Ni  0.33397109  0.87286300  0.11220890     1.34900
C684        C  0.40231296  0.79667923  0.27462153     0.85900
O685        O  0.41445896  0.86666517  0.06889032    -0.78200
O686        O  0.35962268  0.86608214  0.04331026    -0.88500
C687        C  0.48216819  0.86648875  0.17471561     0.85400
O688        O  0.34789120  0.91865044  0.11517084    -0.66700
O689        O  0.42084468  0.86382293  0.35073330    -0.86000
C690        C  0.37520439  0.93368818  0.12777907     0.86300
C691        C  0.39083112  0.86560830  0.03092950     1.07800
H692        H  0.41088261  0.89886577  0.24513046     0.39600
O693        O  0.41091129  0.87523076  0.23535872    -1.08600
O694        O  0.37616186  0.81255812  0.25759894    -0.65300
Ni695      Ni  0.36569419  0.85957224  0.24353770     1.26300
O696        O  0.40172635  0.91825206  0.14438081    -0.65500
O697        O  0.36548203  0.86599570  0.32670839    -0.77800
C698        C  0.29680464  0.85926443  0.21380037     0.85700
O699        O  0.31914441  0.84551382  0.24593298    -0.65000
Ni700      Ni  0.44586847  0.85563810  0.28075640     1.27400
Ni701      Ni  0.41369419  0.87108575  0.15243061     1.26100
H702        H  0.36939621  0.83035725  0.15181467     0.40200
O703        O  0.30591695  0.87935063  0.67341970    -0.79800
O704        O  0.46086251  0.88804869  0.65404890    -0.64400
O705        O  0.37042798  0.85452965  0.65923637    -1.11000
C706        C  0.38669102  0.86808546  0.86420199     1.07100
O707        O  0.47387572  0.85010774  0.72109562    -0.77700
O708        O  0.43197811  0.81481124  0.78972622    -0.65200
Ni709      Ni  0.33600413  0.87275256  0.61021831     1.34900
C710        C  0.40492196  0.79911266  0.77892372     0.85900
O711        O  0.41746807  0.86824731  0.57029211    -0.78200
O712        O  0.36301189  0.86752928  0.54244266    -0.88500
C713        C  0.48257716  0.87002649  0.68042039     0.85400
O714        O  0.34833919  0.91892058  0.61526045    -0.66700
O715        O  0.41813706  0.86960782  0.85264232    -0.86000
C716        C  0.37528780  0.93452487  0.62807966     0.86300
C717        C  0.39439030  0.86717661  0.53122611     1.07800
H718        H  0.40815759  0.90100640  0.74577776     0.39600
O719        O  0.40996435  0.87735316  0.73667144    -1.08600
O720        O  0.37891179  0.81281199  0.75619902    -0.65300
Ni721      Ni  0.36565918  0.85917246  0.74235294     1.26300
O722        O  0.40206145  0.91965463  0.64469998    -0.65500
O723        O  0.36338977  0.86479016  0.82575299    -0.77800
C724        C  0.29773025  0.85657912  0.70934709     0.85700
O725        O  0.31993769  0.84275272  0.74166559    -0.65000
Ni726      Ni  0.44484947  0.86075469  0.78527972     1.27400
Ni727      Ni  0.41484881  0.87288174  0.65395911     1.26100
H728        H  0.37193849  0.83085522  0.65019823     0.40200
O729        O  0.33102056  0.03077998  0.03294314    -0.79800
O730        O  0.32938632  0.18593578  0.00424204    -0.64400
O731        O  0.35948654  0.09423779  0.01387912    -1.11000
C732        C  0.34657582  0.11236092  0.21823626     1.07100
O733        O  0.36635345  0.19760070  0.07294330    -0.77700
O734        O  0.40201616  0.15521787  0.13789830    -0.65200
Ni735      Ni  0.34127122  0.05943121  0.96726666     1.34900
C736        C  0.41706029  0.12825324  0.12401821     0.85900
O737        O  0.34992052  0.14045826  0.92288764    -0.78200
O738        O  0.34984374  0.08537054  0.89816286    -0.88500
C739        C  0.34437290  0.20728051  0.03659074     0.85400
O740        O  0.29560933  0.07359445  0.96565600    -0.66700
O741        O  0.34734222  0.14366893  0.20615003    -0.86000
C742        C  0.28110666  0.10161267  0.97299916     0.86300
C743        C  0.35116182  0.11669459  0.88537140     1.07800
H744        H  0.31362620  0.13454060  0.09721421     0.39600
O745        O  0.33748810  0.13531835  0.08897956    -1.08600
O746        O  0.40157471  0.10232496  0.10570758    -0.65300
Ni747      Ni  0.35449215  0.09058724  0.09666118     1.26300
O748        O  0.29621701  0.12798978  0.99114350    -0.65500
O749        O  0.34898047  0.08908327  0.18014212    -0.77800
C750        C  0.35107595  0.02245733  0.07383768     0.85700
O751        O  0.36895107  0.04445941  0.09941277    -0.65000
Ni752      Ni  0.35617780  0.16943133  0.13759746     1.27400
Ni753      Ni  0.34326363  0.13925611  0.00590199     1.26100
H754        H  0.38325538  0.09484803  0.00484602     0.40200
O755        O  0.32785105  0.03099537  0.53597539    -0.79800
O756        O  0.32823338  0.18629752  0.50478555    -0.64400
O757        O  0.35594109  0.09389986  0.51275710    -1.11000
C758        C  0.34882490  0.11289487  0.71845981     1.07100
O759        O  0.36616480  0.19666720  0.57237276    -0.77700
O760        O  0.40081518  0.15458859  0.63960491    -0.65200
Ni761      Ni  0.33495237  0.05948171  0.46889741     1.34900
C762        C  0.41629493  0.12868144  0.62173456     0.85900
O763        O  0.34661713  0.14020317  0.42270685    -0.78200
O764        O  0.34048287  0.08535295  0.39845425    -0.88500
C765        C  0.34403793  0.20710506  0.53699646     0.85400
O766        O  0.28964954  0.07421157  0.47455335    -0.66700
O767        O  0.34590841  0.14406021  0.70630412    -0.86000
C768        C  0.27664274  0.10316751  0.47829670     0.86300
C769        C  0.34466984  0.11640675  0.38530456     1.07800
H770        H  0.31249826  0.13413144  0.59838865     0.39600
O771        O  0.33622471  0.13527306  0.58925411    -1.08600
O772        O  0.40114765  0.10348873  0.59964546    -0.65300
Ni773      Ni  0.35396842  0.09083198  0.59598745     1.26300
O774        O  0.29329019  0.12951965  0.49198340    -0.65500
O775        O  0.35215769  0.08982689  0.68014733    -0.77800
C776        C  0.34962643  0.02274921  0.57423330     0.85700
O777        O  0.36857044  0.04476612  0.59754939    -0.65000
Ni778      Ni  0.35517422  0.16936224  0.63756840     1.27400
Ni779      Ni  0.34082099  0.13925994  0.50579793     1.26100
H780        H  0.37932661  0.09369550  0.50112215     0.40200
O781        O  0.15786249  0.03981057  0.31993656    -0.79800
O782        O  0.14097402  0.19115078  0.35170337    -0.64400
O783        O  0.12059282  0.09756953  0.33737525    -1.11000
C784        C  0.12320558  0.11311500  0.13543045     1.07100
O785        O  0.12576319  0.20804297  0.26195354    -0.77700
O786        O  0.07623920  0.16040346  0.24975152    -0.65200
Ni787      Ni  0.14040429  0.06428227  0.38564456     1.34900
C788        C  0.06283547  0.13124387  0.24965897     0.85900
O789        O  0.12285316  0.14225734  0.43021870    -0.78200
O790        O  0.12415784  0.08673211  0.45360525    -0.88500
C791        C  0.13611970  0.21402200  0.31321809     0.85400
O792        O  0.18316426  0.08460040  0.39981570    -0.66700
O793        O  0.10772587  0.13946769  0.15066359    -0.86000
C794        C  0.19528773  0.11375519  0.39099935     0.86300
C795        C  0.12108447  0.11774620  0.46721456     1.07800
H796        H  0.16491146  0.14315274  0.25575815     0.39600
O797        O  0.14100753  0.14101374  0.26289165    -1.08600
O798        O  0.08018007  0.10422969  0.24362335    -0.65300
Ni799      Ni  0.12824384  0.09481535  0.25552991     1.26300
O800        O  0.17932618  0.13691988  0.36396853    -0.65500
O801        O  0.13665306  0.09357698  0.17288308    -0.77800
C802        C  0.13853815  0.02806752  0.28058000     0.85700
O803        O  0.11825512  0.04746634  0.25355430    -0.65000
Ni804      Ni  0.11736920  0.17113342  0.21178489     1.27400
Ni805      Ni  0.13189773  0.14346864  0.34651608     1.26100
H806        H  0.09665841  0.09573426  0.34440838     0.40200
O807        O  0.15942282  0.03990545  0.82203422    -0.79800
O808        O  0.14389879  0.19173979  0.85060549    -0.64400
O809        O  0.12273764  0.09820995  0.83777309    -1.11000
C810        C  0.12516758  0.11231615  0.63544784     1.07100
O811        O  0.12792843  0.20837806  0.76117574    -0.77700
O812        O  0.07841813  0.16053371  0.74773131    -0.65200
Ni813      Ni  0.14209269  0.06508510  0.88690186     1.34900
C814        C  0.06503331  0.13134138  0.74793071     0.85900
O815        O  0.12499974  0.14360649  0.92982056    -0.78200
O816        O  0.12593090  0.08824578  0.95414188    -0.88500
C817        C  0.13850961  0.21456313  0.81225240     0.85400
O818        O  0.18513530  0.08489134  0.90037504    -0.66700
O819        O  0.11080824  0.13940307  0.65009455    -0.86000
C820        C  0.19768371  0.11379114  0.89089905     0.86300
C821        C  0.12271518  0.11932392  0.96715265     1.07800
H822        H  0.16740116  0.14296601  0.75545331     0.39600
O823        O  0.14347856  0.14103151  0.76259372    -1.08600
O824        O  0.08243905  0.10426940  0.74362102    -0.65300
Ni825      Ni  0.13039499  0.09476978  0.75596870     1.26300
O826        O  0.18180805  0.13713604  0.86409566    -0.65500
O827        O  0.13853084  0.09283083  0.67314833    -0.77800
C828        C  0.14019999  0.02803040  0.78269714     0.85700
O829        O  0.12012691  0.04738319  0.75505132    -0.65000
Ni830      Ni  0.12004968  0.17117042  0.71111296     1.27400
Ni831      Ni  0.13440977  0.14409497  0.84618724     1.26100
H832        H  0.09877561  0.09665978  0.84472273     0.40200
C833        C  0.12562064  0.10334653  0.57265228    -0.15300
C834        C  0.11665418  0.12550734  0.53000787    -0.30500
H835        H  0.13533596  0.07870686  0.56108942     0.13700
H836        H  0.10860777  0.15075319  0.54146002     0.14300
C837        C  0.12490222  0.10477878  0.07251933    -0.15300
C838        C  0.11726758  0.12727355  0.02968029    -0.30500
H839        H  0.13463453  0.08011385  0.06116380     0.13700
H840        H  0.10930702  0.15258251  0.04090814     0.14300
C841        C  0.24051772  0.10517468  0.46350704    -0.15300
C842        C  0.22946898  0.12082590  0.41455823    -0.30500
H843        H  0.22390993  0.08755168  0.48572391     0.13700
H844        H  0.24592610  0.13800414  0.39104820     0.14300
C845        C  0.35295652  0.12601449  0.82324621    -0.15300
C846        C  0.34895024  0.10309339  0.78044825    -0.30500
H847        H  0.35590561  0.15252689  0.81251295     0.13700
H848        H  0.34640819  0.07652395  0.79098325     0.14300
C849        C  0.34711222  0.12547637  0.32313520    -0.15300
C850        C  0.34333054  0.10268692  0.28008360    -0.30500
H851        H  0.35202062  0.15171976  0.31258721     0.13700
H852        H  0.33886203  0.07634273  0.29040206     0.14300
C853        C  0.23229947  0.12034583  0.91327804    -0.15300
C854        C  0.24487008  0.10233246  0.95854741    -0.30500
H855        H  0.24770448  0.13943396  0.89217174     0.13700
H856        H  0.22942768  0.08280463  0.97835912     0.14300
C857        C  0.35029819  0.98706131  0.59198552    -0.15300
C858        C  0.37564112  0.97170860  0.62081766    -0.30500
H859        H  0.32930519  0.97203007  0.57607163     0.13700
H860        H  0.39757936  0.98598958  0.63478244     0.14300
C861        C  0.35095136  0.98679019  0.09200106    -0.15300
C862        C  0.37619685  0.97090360  0.12038995    -0.30500
H863        H  0.32962593  0.97217245  0.07627303     0.13700
H864        H  0.39850807  0.98476280  0.13385239     0.14300
C865        C  0.40002780  0.86457263  0.96892550    -0.15300
C866        C  0.37701940  0.86920018  0.92603787    -0.30500
H867        H  0.42645260  0.86088196  0.95839301     0.13700
H868        H  0.35052382  0.87257189  0.93639735     0.14300
C869        C  0.38097986  0.86907528  0.42614490    -0.15300
C870        C  0.40414359  0.86580061  0.46923104    -0.30500
H871        H  0.35454758  0.87269709  0.43672565     0.13700
H872        H  0.43062043  0.86235086  0.45888155     0.14300
C873        C  0.38528125  0.75063959  0.83794799    -0.15300
C874        C  0.40463233  0.76317183  0.79449785    -0.30500
H875        H  0.36620441  0.76635138  0.85808797     0.13700
H876        H  0.42440016  0.74777255  0.77569004     0.14300
C877        C  0.39048759  0.64563243  0.66999862    -0.15300
C878        C  0.36762300  0.64182929  0.71314398    -0.30500
H879        H  0.41683107  0.65016691  0.68053820     0.13700
H880        H  0.34109821  0.63838044  0.70276308     0.14300
C881        C  0.36650072  0.64004601  0.21255487    -0.15300
C882        C  0.39002395  0.64331929  0.17026244    -0.30500
H883        H  0.34001825  0.63729418  0.20124241     0.13700
H884        H  0.41632259  0.64731311  0.18174178     0.14300
C885        C  0.38254705  0.74904352  0.33522473    -0.15300
C886        C  0.40029698  0.76065971  0.28909040    -0.30500
H887        H  0.36503966  0.76548672  0.35772798     0.13700
H888        H  0.41834571  0.74429513  0.26773482     0.14300
C889        C  0.62102048  0.37717626  0.71540753    -0.15300
C890        C  0.59764979  0.37243206  0.67302676    -0.30500
H891        H  0.64739763  0.38080411  0.70438457     0.13700
H892        H  0.57149465  0.36762578  0.68433905     0.14300
C893        C  0.61919935  0.37920302  0.21522638    -0.15300
C894        C  0.59649146  0.37321392  0.17224071    -0.30500
H895        H  0.64537750  0.38436012  0.20461474     0.13700
H896        H  0.57058485  0.36689438  0.18304117     0.14300
C897        C  0.46950799  0.15207580  0.65910182    -0.15300
C898        C  0.45358900  0.12765805  0.62902103    -0.30500
H899        H  0.45484319  0.17289180  0.67623581     0.13700
H900        H  0.46756142  0.10604869  0.61324902     0.14300
C901        C  0.58929206  0.25763156  0.78989491    -0.15300
C902        C  0.60479191  0.26839637  0.83900932    -0.30500
H903        H  0.57344059  0.27481533  0.76505278     0.13700
H904        H  0.62017442  0.25119483  0.86471815     0.14300
C905        C  0.47064150  0.15169778  0.15928108    -0.15300
C906        C  0.45427671  0.12675881  0.13147905    -0.30500
H907        H  0.45640256  0.17328661  0.17453827     0.13700
H908        H  0.46780562  0.10434499  0.11803662     0.14300
C909        C  0.58521418  0.15453694  0.96991507    -0.15300
C910        C  0.60806333  0.14996147  0.92715363    -0.30500
H911        H  0.55874938  0.15834402  0.95945127     0.13700
H912        H  0.63442684  0.14570157  0.93792804     0.14300
C913        C  0.60925698  0.15093390  0.42727603    -0.15300
C914        C  0.58609313  0.15528823  0.46974501    -0.30500
H915        H  0.63567189  0.14739801  0.43843007     0.13700
H916        H  0.55961564  0.15851378  0.45879894     0.14300
C917        C  0.60543468  0.26943048  0.33677731    -0.15300
C918        C  0.58755861  0.25774458  0.29068145    -0.30500
H919        H  0.62347612  0.25318491  0.35887392     0.13700
H920        H  0.56901621  0.27392706  0.26973082     0.14300
C921        C  0.87257603  0.88729454  0.53887177    -0.15300
C922        C  0.86614061  0.91011611  0.58135774    -0.30500
H923        H  0.87867071  0.86147170  0.55054848     0.13700
H924        H  0.85812726  0.93541121  0.56965812     0.14300
C925        C  0.86149810  0.90847295  0.08129501    -0.15300
C926        C  0.86848300  0.88556187  0.03917012    -0.30500
H927        H  0.85304704  0.93355885  0.06918308     0.13700
H928        H  0.87507107  0.85990518  0.05115760     0.14300
C929        C  0.63734780  0.03342039  0.59476351    -0.15300
C930        C  0.61190901  0.04872821  0.62280382    -0.30500
H931        H  0.65804416  0.04848083  0.57782736     0.13700
H932        H  0.59041318  0.03430531  0.63824720     0.14300
C933        C  0.53442269  0.89363532  0.63339688    -0.15300
C934        C  0.51831136  0.86940209  0.66354004    -0.30500
H935        H  0.52078779  0.91559699  0.61768798     0.13700
H936        H  0.53272542  0.84845654  0.68132489     0.14300
C937        C  0.74686117  0.91452768  0.47162775    -0.15300
C938        C  0.75809955  0.89723867  0.42485812    -0.30500
H939        H  0.76338597  0.93280682  0.49231053     0.13700
H940        H  0.74152295  0.87954646  0.40285074     0.14300
C941        C  0.63907138  0.03252828  0.09337557    -0.15300
C942        C  0.61380899  0.04792871  0.12204822    -0.30500
H943        H  0.65943380  0.04762181  0.07536122     0.13700
H944        H  0.59255524  0.03340194  0.13817797     0.14300
C945        C  0.53516024  0.89261956  0.13533259    -0.15300
C946        C  0.51803179  0.86623787  0.15754629    -0.30500
H947        H  0.52204976  0.91588707  0.12493049     0.13700
H948        H  0.53182861  0.84365953  0.16985696     0.14300
C949        C  0.63441189  0.89450064  0.83073783    -0.15300
C950        C  0.63965757  0.91744698  0.78794909    -0.30500
H951        H  0.62948954  0.86834554  0.81990633     0.13700
H952        H  0.64436610  0.94366811  0.79856712     0.14300
C953        C  0.64578067  0.91667029  0.28770536    -0.15300
C954        C  0.64015148  0.89423248  0.33099867    -0.30500
H955        H  0.65142068  0.94279538  0.29768739     0.13700
H956        H  0.63414669  0.86821927  0.32075445     0.14300
C957        C  0.74476156  0.91281546  0.96473346    -0.15300
C958        C  0.75634604  0.89535487  0.91831731    -0.30500
H959        H  0.76122237  0.93098354  0.98583159     0.13700
H960        H  0.74002607  0.87755784  0.89599545     0.14300
C961        C  0.83933228  0.74109599  0.79029665    -0.15300
C962        C  0.84388920  0.76340892  0.83425991    -0.30500
H963        H  0.83440579  0.74987328  0.74609673     0.13700
H964        H  0.84652284  0.75472400  0.87907685     0.14300
C965        C  0.83669136  0.74183404  0.29340268    -0.15300
C966        C  0.84189178  0.76415533  0.33729110    -0.30500
H967        H  0.83084634  0.75070022  0.24958629     0.13700
H968        H  0.84553507  0.75544250  0.38188008     0.14300
C969        C  0.84716330  0.59933712  0.54345342    -0.15300
C970        C  0.85098808  0.62234120  0.58624904    -0.30500
H971        H  0.84324409  0.57294616  0.55407770     0.13700
H972        H  0.85489637  0.64872387  0.57549897     0.14300
C973        C  0.85125841  0.60041170  0.04354424    -0.15300
C974        C  0.85457909  0.62358602  0.08624551    -0.30500
H975        H  0.84778920  0.57397863  0.05434444     0.13700
H976        H  0.85795377  0.65002142  0.07537778     0.14300
C977        C  0.64685832  0.75393046  0.58345513    -0.15300
C978        C  0.64895487  0.77535005  0.53735377    -0.30500
H979        H  0.64748800  0.76360988  0.62773063     0.13700
H980        H  0.65065419  0.76563584  0.49320322     0.14300
C981        C  0.61466575  0.47783007  0.51322169    -0.15300
C982        C  0.63999700  0.49687904  0.53428006    -0.30500
H983        H  0.59040324  0.48917575  0.50320070     0.13700
H984        H  0.66342968  0.48491532  0.54765458     0.14300
C985        C  0.52458973  0.63008016  0.49691608    -0.15300
C986        C  0.50529231  0.65497929  0.47491172    -0.30500
H987        H  0.51339689  0.60578692  0.50705175     0.13700
H988        H  0.51728253  0.67832200  0.46128921     0.14300
C989        C  0.73275342  0.61940108  0.67513736    -0.15300
C990        C  0.74373095  0.60247711  0.72298294    -0.30500
H991        H  0.74971110  0.63635834  0.65222065     0.13700
H992        H  0.72694416  0.58485100  0.74473697     0.14300
C993        C  0.64747948  0.75344925  0.08453874    -0.15300
C994        C  0.64852821  0.77451059  0.03791127    -0.30500
H995        H  0.64915980  0.76335931  0.12859112     0.13700
H996        H  0.64915042  0.76451672  0.99385618     0.14300
C997        C  0.64148898  0.49643420  0.03109810    -0.15300
C998        C  0.61668406  0.47743645  0.00799871    -0.30500
H999        H  0.66442685  0.48421048  0.04626331     0.13700
H1000       H  0.59273149  0.48887580  0.99621895     0.14300
C1001       C  0.52574077  0.63050750  0.99795902    -0.15300
C1002       C  0.50670278  0.65559065  0.97596010    -0.30500
H1003       H  0.51436174  0.60632046  0.00822202     0.13700
H1004       H  0.51885600  0.67882899  0.96221298     0.14300
C1005       C  0.62355230  0.63531103  0.79198247    -0.15300
C1006       C  0.62909395  0.61220008  0.83459478    -0.30500
H1007       H  0.61950947  0.66157857  0.80290021     0.13700
H1008       H  0.63451624  0.58622179  0.82332626     0.14300
C1009       C  0.62433085  0.63383325  0.29204651    -0.15300
C1010       C  0.62900771  0.61070366  0.33492336    -0.30500
H1011       H  0.62016085  0.66010498  0.30281716     0.13700
H1012       H  0.63451427  0.58469424  0.32401300     0.14300
C1013       C  0.73436641  0.61947115  0.17133938    -0.15300
C1014       C  0.74526260  0.60302970  0.21953807    -0.30500
H1015       H  0.75127484  0.63613189  0.14764575     0.13700
H1016       H  0.72840199  0.58596921  0.24243279     0.14300
C1017       C  0.26165572  0.84942586  0.71704399    -0.15300
C1018       C  0.23915483  0.85443281  0.67321562    -0.30500
H1019       H  0.25298035  0.84325106  0.76074686     0.13700
H1020       H  0.24762600  0.85840694  0.62866135     0.14300
C1021       C  0.96352958  0.88398337  0.75729768    -0.15300
C1022       C  0.98156491  0.85803550  0.73639642    -0.30500
H1023       H  0.97578529  0.90779747  0.76696493     0.13700
H1024       H  0.96854836  0.83537050  0.72231098     0.14300
C1025       C  0.11694706  0.97207072  0.75495770    -0.15300
C1026       C  0.14318145  0.99184540  0.76953131    -0.30500
H1027       H  0.09210743  0.98306099  0.74879598     0.13700
H1028       H  0.16726340  0.98026834  0.78013302     0.14300
C1029       C  0.23787334  0.85646008  0.17912397    -0.15300
C1030       C  0.26067676  0.85269182  0.22291554    -0.30500
H1031       H  0.24619211  0.85954245  0.13428266     0.13700
H1032       H  0.25235395  0.84731542  0.26712838     0.14300
C1033       C  0.97941678  0.85740623  0.23699744    -0.15300
C1034       C  0.96111886  0.88378686  0.25529545    -0.30500
H1035       H  0.96678291  0.83401428  0.22571351     0.13700
H1036       H  0.97313781  0.90807531  0.26186831     0.14300
C1037       C  0.11475276  0.97230749  0.25382158    -0.15300
C1038       C  0.14135403  0.99195731  0.26688399    -0.30500
H1039       H  0.08987723  0.98343484  0.24902206     0.13700
H1040       H  0.16557818  0.98031857  0.27619797     0.14300
C1041       C  0.11643088  0.88006211  0.97346902    -0.15300
C1042       C  0.09439215  0.87199138  0.93026932    -0.30500
H1043       H  0.14204778  0.88747174  0.96273798     0.13700
H1044       H  0.06932126  0.86298585  0.94125856     0.14300
C1045       C  0.09151392  0.87174004  0.43042081    -0.15300
C1046       C  0.11468162  0.87887935  0.47235523    -0.30500
H1047       H  0.06659727  0.86276988  0.44250106     0.13700
H1048       H  0.14020936  0.88586494  0.46023101     0.14300
C1049       C  0.23050153  0.66203000  0.97243040    -0.15300
C1050       C  0.24980223  0.66153880  0.92373995    -0.30500
H1051       H  0.24217083  0.66275866  0.01538096     0.13700
H1052       H  0.23818667  0.66283473  0.88076532     0.14300
C1053       C  0.95683464  0.62408876  0.88737261    -0.15300
C1054       C  0.97292084  0.64910356  0.91557186    -0.30500
H1055       H  0.97058620  0.60205564  0.87278164     0.13700
H1056       H  0.95831860  0.67011519  0.93214232     0.14300
C1057       C  0.09126093  0.75710336  0.04327869    -0.15300
C1058       C  0.10700182  0.76798001  0.09201803    -0.30500
H1059       H  0.07383981  0.77375506  0.02055947     0.13700
H1060       H  0.12398287  0.75141669  0.11587644     0.14300
C1061       C  0.22861079  0.66149101  0.47109323    -0.15300
C1062       C  0.24820750  0.66043883  0.42290657    -0.30500
H1063       H  0.23994500  0.66286672  0.51425915     0.13700
H1064       H  0.23694560  0.66117254  0.37960848     0.14300
C1065       C  0.97116779  0.64944619  0.41675763    -0.15300
C1066       C  0.95463403  0.62422974  0.39004995    -0.30500
H1067       H  0.95704187  0.67107238  0.43218383     0.13700
H1068       H  0.96803801  0.60166482  0.37699158     0.14300
C1069       C  0.11188868  0.64666319  0.68256842    -0.15300
C1070       C  0.08938779  0.65273812  0.72537789    -0.30500
H1071       H  0.13818439  0.64192539  0.69323067     0.13700
H1072       H  0.06303470  0.65720258  0.71486538     0.14300
C1073       C  0.08709093  0.65401908  0.22505730    -0.15300
C1074       C  0.11040905  0.64953539  0.18287546    -0.30500
H1075       H  0.06081968  0.65844788  0.21388712     0.13700
H1076       H  0.13656350  0.64462754  0.19431649     0.14300
C1077       C  0.10651296  0.76621571  0.59154879    -0.15300
C1078       C  0.08845432  0.75417570  0.54607497    -0.30500
H1079       H  0.12513958  0.75035331  0.61301548     0.13700
H1080       H  0.06933083  0.76997908  0.52582370     0.14300
C1081       C  0.14677042  0.27414960  0.78436032    -0.15300
C1082       C  0.14307890  0.25052606  0.82679314    -0.30500
H1083       H  0.15103530  0.26666813  0.73942659     0.13700
H1084       H  0.14107649  0.25802109  0.87220266     0.14300
C1085       C  0.13769231  0.53169874  0.84572864    -0.15300
C1086       C  0.11383783  0.54709962  0.87744533    -0.30500
H1087       H  0.15774816  0.54664886  0.82635331     0.13700
H1088       H  0.09276128  0.53287551  0.89503565     0.14300
C1089       C  0.14667946  0.27295977  0.28479749    -0.15300
C1090       C  0.14112638  0.24988089  0.32750091    -0.30500
H1091       H  0.15255967  0.26492917  0.24071241     0.13700
H1092       H  0.13749048  0.25782896  0.37236179     0.14300
C1093       C  0.13744573  0.52986314  0.34817681    -0.15300
C1094       C  0.11188659  0.54556674  0.37528075    -0.30500
H1095       H  0.15881013  0.54453440  0.33278696     0.13700
H1096       H  0.08974394  0.53153253  0.38897035     0.14300
C1097       C  0.13910018  0.41439258  0.53879320    -0.15300
C1098       C  0.13415855  0.39188496  0.58226318    -0.30500
H1099       H  0.14338820  0.44078402  0.54866535     0.13700
H1100       H  0.12969117  0.36554125  0.57223644     0.14300
C1101       C  0.13857923  0.39308858  0.08176896    -0.15300
C1102       C  0.14402280  0.41613694  0.03927224    -0.30500
H1103       H  0.13372819  0.36694821  0.07071266     0.13700
H1104       H  0.14843928  0.44239075  0.05001503     0.14300
C1105       C  0.34173771  0.26355518  0.57967753    -0.15300
C1106       C  0.33935272  0.24374525  0.53192261    -0.30500
H1107       H  0.34155206  0.25255722  0.62318490     0.13700
H1108       H  0.33739013  0.25483772  0.48861355     0.14300
C1109       C  0.48136192  0.36206519  0.47585789    -0.15300
C1110       C  0.46215126  0.38696963  0.49746424    -0.30500
H1111       H  0.46929213  0.33906674  0.46092677     0.13700
H1112       H  0.47346909  0.41093663  0.50914055     0.14300
C1113       C  0.34451862  0.52011551  0.52532408    -0.15300
C1114       C  0.37025023  0.53967066  0.50734887    -0.30500
H1115       H  0.32069624  0.53178043  0.53688133     0.13700
H1116       H  0.39471351  0.52847100  0.49886231     0.14300
C1117       C  0.24264012  0.41323990  0.71603149    -0.15300
C1118       C  0.25351396  0.39618480  0.66873341    -0.30500
H1119       H  0.25938082  0.43104588  0.73740581     0.13700
H1120       H  0.23668636  0.37892602  0.64625349     0.14300
C1121       C  0.34021074  0.26399695  0.07765188    -0.15300
C1122       C  0.33926755  0.24381721  0.03020329    -0.30500
H1123       H  0.33848639  0.25328796  0.12126153     0.13700
H1124       H  0.33886527  0.25456562  0.98651432     0.14300
C1125       C  0.46317703  0.38674707  0.99547182    -0.15300
C1126       C  0.48212997  0.36223197  0.97208676    -0.30500
H1127       H  0.47467331  0.41041528  0.00839050     0.13700
H1128       H  0.46981383  0.33969497  0.95569269     0.14300
C1129       C  0.34791675  0.52036330  0.02642871    -0.15300
C1130       C  0.37303921  0.53955792  0.00499422    -0.30500
H1131       H  0.32466667  0.53233811  0.04024204     0.13700
H1132       H  0.39722744  0.52830526  0.99458367     0.14300
C1133       C  0.35907421  0.40574828  0.82987949    -0.15300
C1134       C  0.36415019  0.38280832  0.78731096    -0.30500
H1135       H  0.35330768  0.43171218  0.81861011     0.13700
H1136       H  0.36863978  0.35656322  0.79833907     0.14300
C1137       C  0.36480253  0.38156103  0.28719177    -0.15300
C1138       C  0.35940629  0.40453774  0.32962873    -0.30500
H1139       H  0.36870273  0.35522887  0.29826290     0.13700
H1140       H  0.35423706  0.43059736  0.31814851     0.14300
C1141       C  0.24483797  0.41073544  0.21968508    -0.15300
C1142       C  0.25493035  0.39768610  0.16811379    -0.30500
H1143       H  0.26257891  0.42520265  0.24572253     0.13700
H1144       H  0.23716298  0.38365800  0.14141144     0.14300
C1145       C  0.74943793  0.15637265  0.68018418    -0.15300
C1146       C  0.72703961  0.16118596  0.72390040    -0.30500
H1147       H  0.74083335  0.15363814  0.63537022     0.13700
H1148       H  0.73574582  0.16622738  0.76803489     0.14300
C1149       C  0.87352155  0.04040002  0.75762582    -0.15300
C1150       C  0.84746909  0.02096268  0.77419276    -0.30500
H1151       H  0.89828220  0.02930198  0.75155619     0.13700
H1152       H  0.82350159  0.03268172  0.78468389     0.14300
C1153       C  0.00868259  0.15519602  0.73260217    -0.15300
C1154       C  0.02776420  0.12881274  0.74904499    -0.30500
H1155       H  0.02088709  0.17866735  0.72025819     0.13700
H1156       H  0.01612835  0.10443705  0.75678223     0.14300
C1157       C  0.74935411  0.16071796  0.17462229    -0.15300
C1158       C  0.72746111  0.16579049  0.21904892    -0.30500
H1159       H  0.74035590  0.15785491  0.13006864     0.13700
H1160       H  0.73672871  0.17087204  0.26283880     0.14300
C1161       C  0.84596703  0.02109595  0.27161117    -0.15300
C1162       C  0.87202102  0.04091419  0.25652631    -0.30500
H1163       H  0.82166571  0.03246801  0.28087335     0.13700
H1164       H  0.89704797  0.03015627  0.25196688     0.14300
C1165       C  0.00648998  0.15593283  0.23996150    -0.15300
C1166       C  0.02560532  0.12883051  0.25210799    -0.30500
H1167       H  0.01858295  0.17993957  0.23084930     0.13700
H1168       H  0.01394296  0.10420077  0.25661376     0.14300
C1169       C  0.87369123  0.13386531  0.97422315    -0.15300
C1170       C  0.89658767  0.14113818  0.93201266    -0.30500
H1171       H  0.84821985  0.12648755  0.96223538     0.13700
H1172       H  0.92140859  0.15047443  0.94398246     0.14300
C1173       C  0.86996009  0.13237997  0.47474958    -0.15300
C1174       C  0.89233640  0.14012823  0.43207648    -0.30500
H1175       H  0.84434311  0.12508790  0.46355338     0.13700
H1176       H  0.91734417  0.14914401  0.44361132     0.14300
C1177       C  0.76048863  0.35345298  0.96984117    -0.15300
C1178       C  0.73970961  0.35639960  0.92312204    -0.30500
H1179       H  0.75016425  0.35076507  0.01347500     0.13700
H1180       H  0.74984894  0.35688762  0.87911761     0.14300
C1181       C  0.87751520  0.46827403  0.87753098    -0.15300
C1182       C  0.85165642  0.48421222  0.85122999    -0.30500
H1183       H  0.89957768  0.48227822  0.89176198     0.13700
H1184       H  0.83029134  0.46964662  0.83550811     0.14300
C1185       C  0.01924152  0.36616876  0.92198387    -0.15300
C1186       C  0.03509786  0.39102861  0.89284837    -0.30500
H1187       H  0.03396459  0.34523753  0.93902578     0.13700
H1188       H  0.02108013  0.41287932  0.87771612     0.14300
C1189       C  0.89962325  0.25807541  0.04541419    -0.15300
C1190       C  0.88252251  0.24685751  0.09259511    -0.30500
H1191       H  0.91751375  0.24156042  0.02399491     0.13700
H1192       H  0.86513321  0.26340867  0.11512802     0.14300
C1193       C  0.75877786  0.35788139  0.47501736    -0.15300
C1194       C  0.73880797  0.35932267  0.42685557    -0.30500
H1195       H  0.74770885  0.35704092  0.51830902     0.13700
H1196       H  0.74984201  0.35788766  0.38359644     0.14300
C1197       C  0.87545509  0.46786058  0.37589529    -0.15300
C1198       C  0.85079361  0.48391721  0.34645004    -0.30500
H1199       H  0.89660398  0.48188547  0.39373963     0.13700
H1200       H  0.83050833  0.46927965  0.32705956     0.14300
C1201       C  0.01603735  0.36360497  0.41077172    -0.15300
C1202       C  0.03240808  0.38971036  0.38588420    -0.30500
H1203       H  0.03023184  0.34134722  0.42345903     0.13700
H1204       H  0.01890381  0.41268563  0.37502170     0.14300
C1205       C  0.88114133  0.36665064  0.68293749    -0.15300
C1206       C  0.90452431  0.36194950  0.72533700    -0.30500
H1207       H  0.85499230  0.37138073  0.69426726     0.13700
H1208       H  0.93083343  0.35784057  0.71445326     0.14300
C1209       C  0.89849374  0.35879792  0.22550839    -0.15300
C1210       C  0.87576057  0.36330491  0.18212934    -0.30500
H1211       H  0.92500927  0.35529688  0.21548115     0.13700
H1212       H  0.84930422  0.36722330  0.19220840     0.14300
C1213       C  0.87984482  0.24583208  0.59210942    -0.15300
C1214       C  0.89736485  0.25788490  0.54592143    -0.30500
H1215       H  0.86175857  0.26176499  0.61431008     0.13700
H1216       H  0.91585189  0.24175213  0.52513523     0.14300
loop_ 
_geom_bond_atom_site_label_1 
_geom_bond_atom_site_label_2 
_geom_bond_distance 
_geom_bond_site_symmetry_2 
_ccdc_geom_bond_type 
O1           Ni7   1.894       .  S
O1           C22   1.261       .  A
O2          Ni25   1.922       .  S
O2           C11   1.270       .  A
O3           Ni7   1.907       .  S
O3          Ni25   1.909       .  S
O3          Ni19   1.929       .  S
O3           H26   0.966       .  S
C4           O21   1.283       .  A
C4           O13   1.278       .  A
C4         C1205   1.469       .  S
O5          Ni24   1.928       .  S
O5           C11   1.271       .  A
O6          Ni24   1.898       .  S
O6            C8   1.266       .  A
Ni7          O10   1.903       .  S
Ni7          O12   1.902       .  S
C8           O18   1.277       .  A
C8         C1214   1.476       .  S
O9          Ni25   1.929       .  S
O9           C15   1.278       .  A
O10          C15   1.272       .  A
C11        C1201   1.475   1_655  S
O12          C14   1.269       .  A
O13         Ni24   1.916       .  S
C14          O20   1.271       .  A
C14        C1197   1.485       .  S
C15        C1209   1.471       .  S
H16          O17   0.966       .  S
O17         Ni25   1.910       .  S
O17         Ni19   1.909       .  S
O17         Ni24   1.890       .  S
O18         Ni19   1.950       .  S
Ni19         O23   1.944       .  S
Ni19         O21   1.923       .  S
O20         Ni25   1.935       .  S
C22          O23   1.277       .  A
C22        C1193   1.477       .  S
O27         Ni33   1.895       .  S
O27          C48   1.262       .  A
O28         Ni51   1.924       .  S
O28          C37   1.271       .  A
O29         Ni33   1.904       .  S
O29         Ni51   1.912       .  S
O29         Ni45   1.924       .  S
O29          H52   0.966       .  S
C30          O47   1.281       .  A
C30          O39   1.278       .  A
C30        C1210   1.474       .  S
O31         Ni50   1.925   1_556  S
O31          C37   1.270       .  A
O32         Ni50   1.897       .  S
O32          C34   1.265       .  A
Ni33         O36   1.893       .  S
Ni33         O38   1.899       .  S
C34          O44   1.275       .  A
C34        C1189   1.470       .  S
O35         Ni51   1.935       .  S
O35          C41   1.280       .  A
O36          C41   1.271       .  A
C37        C1185   1.476   1_655  S
O38          C40   1.269       .  A
O39         Ni50   1.916       .  S
C40          O46   1.271       .  A
C40        C1181   1.483       .  S
C41        C1206   1.472       .  S
H42          O43   0.966   1_554  S
O43         Ni51   1.915       .  S
O43         Ni45   1.910       .  S
O43         Ni50   1.892   1_556  S
O44         Ni45   1.941   1_554  S
Ni45         O49   1.934       .  S
Ni45         O47   1.924   1_556  S
O46         Ni51   1.934       .  S
C48          O49   1.273       .  A
C48        C1177   1.473       .  S
O53         Ni59   1.896       .  S
O53          C74   1.267       .  A
O54         Ni77   1.919       .  S
O54          C63   1.270       .  A
O55         Ni59   1.915       .  S
O55         Ni77   1.910       .  S
O55         Ni71   1.946       .  S
O55          H78   0.966       .  S
C56          O73   1.291       .  A
C56          O65   1.278       .  A
C56        C1169   1.483   1_554  S
O57         Ni76   1.923       .  S
O57          C63   1.269       .  A
O58         Ni76   1.901       .  S
O58          C60   1.267       .  A
Ni59         O62   1.923       .  S
Ni59         O64   1.903       .  S
C60          O70   1.275       .  A
C60        C1190   1.483       .  S
O61         Ni77   1.920       .  S
O61          C67   1.272       .  A
O62          C67   1.267       .  A
C63        C1165   1.470   1_655  S
O64          C66   1.273       .  A
O65         Ni76   1.910       .  S
C66          O72   1.279       .  A
C66        C1162   1.481       .  S
C67        C1174   1.480       .  S
H68          O69   0.966       .  S
O69         Ni77   1.908       .  S
O69         Ni71   1.890       .  S
O69         Ni76   1.891       .  S
O70         Ni71   1.942       .  S
Ni71         O75   1.928       .  S
Ni71         O73   1.955       .  S
O72         Ni77   1.952       .  S
C74          O75   1.277       .  A
C74        C1157   1.471       .  S
O79         Ni85   1.896       .  S
O79         C100   1.266       .  A
O80        Ni103   1.923       .  S
O80          C89   1.271       .  A
O81         Ni85   1.916       .  S
O81        Ni103   1.914       .  S
O81         Ni97   1.949       .  S
O81         H104   0.966       .  S
C82          O99   1.288       .  A
C82          O91   1.277       .  A
C82        C1173   1.483       .  S
O83        Ni102   1.924       .  S
O83          C89   1.270       .  A
O84        Ni102   1.904       .  S
O84          C86   1.269       .  A
Ni85         O88   1.919       .  S
Ni85         O90   1.902       .  S
C86          O96   1.277       .  A
C86        C1213   1.490       .  S
O87        Ni103   1.929       .  S
O87          C93   1.273       .  A
O88          C93   1.265       .  A
C89        C1153   1.473   1_655  S
O90          C92   1.274       .  A
O91        Ni102   1.909       .  S
C92          O98   1.281       .  A
C92        C1149   1.481       .  S
C93        C1170   1.483       .  S
H94          O95   0.966       .  S
O95        Ni103   1.908       .  S
O95         Ni97   1.893       .  S
O95        Ni102   1.891       .  S
O96         Ni97   1.946       .  S
Ni97        O101   1.927       .  S
Ni97         O99   1.950       .  S
O98        Ni103   1.956       .  S
C100        O101   1.276       .  A
C100       C1145   1.473       .  S
O105       Ni111   1.924       .  S
O105        C126   1.272       .  A
O106       Ni129   1.927       .  S
O106        C115   1.273       .  A
O107       Ni111   1.887       .  S
O107       Ni129   1.894       .  S
O107       Ni123   1.913       .  S
O107        H130   0.966       .  S
C108        O125   1.278       .  A
C108        O117   1.272       .  A
C108       C1133   1.476       .  S
O109       Ni128   1.904   1_554  S
O109        C115   1.266       .  A
O110       Ni128   1.903       .  S
O110        C112   1.270       .  A
Ni111       O114   1.907       .  S
Ni111       O116   1.912       .  S
C112        O122   1.273   1_556  A
C112       C1125   1.484       .  S
O113       Ni129   1.943       .  S
O113        C119   1.287       .  A
O114        C119   1.278       .  A
C115       C1121   1.472       .  S
O116        C118   1.269       .  A
O117       Ni128   1.913       .  S
C118        O124   1.276       .  A
C118       C1142   1.488       .  S
C119       C1137   1.474       .  S
H120        O121   0.966       .  S
O121       Ni129   1.927       .  S
O121       Ni123   1.911       .  S
O121       Ni128   1.908   1_554  S
O122       Ni123   1.940       .  S
Ni123       O127   1.925       .  S
Ni123       O125   1.924   1_554  S
O124       Ni129   1.942       .  S
C126        O127   1.272       .  A
C126       C1129   1.474       .  S
O131       Ni137   1.924       .  S
O131        C152   1.271       .  A
O132       Ni155   1.928       .  S
O132        C141   1.273       .  A
O133       Ni137   1.884       .  S
O133       Ni155   1.893       .  S
O133       Ni149   1.912       .  S
O133        H156   0.966       .  S
C134        O151   1.279       .  A
C134        O143   1.272       .  A
C134       C1138   1.477       .  S
O135       Ni154   1.903       .  S
O135        C141   1.265       .  A
O136       Ni154   1.901       .  S
O136        C138   1.270       .  A
Ni137       O140   1.909       .  S
Ni137       O142   1.903       .  S
C138        O148   1.274       .  A
C138       C1110   1.485       .  S
O139       Ni155   1.941       .  S
O139        C145   1.287       .  A
O140        C145   1.279       .  A
C141       C1105   1.470       .  S
O142        C144   1.268       .  A
O143       Ni154   1.911       .  S
C144        O150   1.276       .  A
C144       C1118   1.485       .  S
C145       C1134   1.474       .  S
H146        O147   0.966       .  S
O147       Ni155   1.930       .  S
O147       Ni149   1.914       .  S
O147       Ni154   1.910       .  S
O148       Ni149   1.942       .  S
Ni149       O153   1.928       .  S
Ni149       O151   1.927       .  S
O150       Ni155   1.942       .  S
C152        O153   1.274       .  A
C152       C1113   1.476       .  S
O157       Ni163   1.922       .  S
O157        C178   1.269       .  A
O158       Ni181   1.929       .  S
O158        C167   1.274       .  A
O159       Ni163   1.894       .  S
O159       Ni181   1.903       .  S
O159       Ni175   1.910       .  S
O159        H182   0.966       .  S
C160        O177   1.276       .  A
C160        O169   1.272       .  A
C160       C1097   1.473       .  S
O161       Ni180   1.902       .  S
O161        C167   1.264       .  A
O162       Ni180   1.901       .  S
O162        C164   1.269       .  A
Ni163       O166   1.913       .  S
Ni163       O168   1.899       .  S
C164        O174   1.274       .  A
C164       C1202   1.489       .  S
O165       Ni181   1.923       .  S
O165        C171   1.282       .  A
O166        C171   1.278       .  A
C167       C1089   1.472       .  S
O168        C170   1.265       .  A
O169       Ni180   1.906       .  S
C170        O176   1.277       .  A
C170       C1141   1.477       .  S
C171       C1101   1.468       .  S
H172        O173   0.966       .  S
O173       Ni181   1.926       .  S
O173       Ni175   1.912       .  S
O173       Ni180   1.910       .  S
O174       Ni175   1.942       .  S
Ni175       O179   1.918       .  S
Ni175       O177   1.924       .  S
O176       Ni181   1.949       .  S
C178        O179   1.269       .  A
C178       C1093   1.470       .  S
O183       Ni189   1.921       .  S
O183        C204   1.269       .  A
O184       Ni207   1.927       .  S
O184        C193   1.273       .  A
O185       Ni189   1.895       .  S
O185       Ni207   1.905       .  S
O185       Ni201   1.913       .  S
O185        H208   0.966       .  S
C186        O203   1.277       .  A
C186        O195   1.271       .  A
C186       C1102   1.471   1_556  S
O187       Ni206   1.905       .  S
O187        C193   1.265       .  A
O188       Ni206   1.906       .  S
O188        C190   1.271       .  A
Ni189       O192   1.916       .  S
Ni189       O194   1.897       .  S
C190        O200   1.273       .  A
C190       C1186   1.487       .  S
O191       Ni207   1.924       .  S
O191        C197   1.281       .  A
O192        C197   1.278       .  A
C193       C1081   1.475       .  S
O194        C196   1.265       .  A
O195       Ni206   1.898       .  S
C196        O202   1.275       .  A
C196       C1117   1.471       .  S
C197       C1098   1.473       .  S
H198        O199   0.966       .  S
O199       Ni207   1.923       .  S
O199       Ni201   1.912       .  S
O199       Ni206   1.908       .  S
O200       Ni201   1.936       .  S
Ni201       O205   1.920       .  S
Ni201       O203   1.928       .  S
O202       Ni207   1.942       .  S
C204        O205   1.270       .  A
C204       C1085   1.470       .  S
O209       Ni215   1.892       .  S
O209        C230   1.261       .  A
O210       Ni233   1.922       .  S
O210        C219   1.270       .  A
O211       Ni215   1.904       .  S
O211       Ni233   1.909       .  S
O211       Ni227   1.925       .  S
O211        H234   0.966       .  S
C212        O229   1.281       .  A
C212        O221   1.278       .  A
C212       C1069   1.473       .  S
O213       Ni232   1.922       .  S
O213        C219   1.269       .  A
O214       Ni232   1.895       .  S
O214        C216   1.265       .  A
Ni215       O218   1.895       .  S
Ni215       O220   1.898       .  S
C216        O226   1.276       .  A
C216       C1078   1.472       .  S
O217       Ni233   1.932       .  S
O217        C223   1.280       .  A
O218        C223   1.271       .  A
C219       C1065   1.472   1_455  S
O220        C222   1.268       .  A
O221       Ni232   1.916       .  S
C222        O228   1.272       .  A
C222       C1094   1.484       .  S
C223       C1073   1.471       .  S
H224        O225   0.966       .  S
O225       Ni233   1.916       .  S
O225       Ni227   1.908       .  S
O225       Ni232   1.892       .  S
O226       Ni227   1.944       .  S
Ni227       O231   1.934       .  S
Ni227       O229   1.925       .  S
O228       Ni233   1.936       .  S
C230        O231   1.273       .  A
C230       C1061   1.471       .  S
O235       Ni241   1.893       .  S
O235        C256   1.261       .  A
O236       Ni259   1.924       .  S
O236        C245   1.270       .  A
O237       Ni241   1.907       .  S
O237       Ni259   1.911       .  S
O237       Ni253   1.929   1_556  S
O237        H260   0.966       .  S
C238        O255   1.283       .  A
C238        O247   1.277       .  A
C238       C1074   1.469       .  S
O239       Ni258   1.920   1_556  S
O239        C245   1.268       .  A
O240       Ni258   1.893       .  S
O240        C242   1.264       .  A
Ni241       O244   1.902       .  S
Ni241       O246   1.900       .  S
C242        O252   1.275       .  A
C242       C1057   1.468       .  S
O243       Ni259   1.929       .  S
O243        C249   1.279       .  A
O244        C249   1.273       .  A
C245       C1054   1.472   1_455  S
O246        C248   1.269       .  A
O247       Ni258   1.913       .  S
C248        O254   1.270       .  A
C248       C1086   1.482       .  S
C249       C1070   1.471       .  S
H250        O251   0.966   1_554  S
O251       Ni259   1.911       .  S
O251       Ni253   1.908   1_556  S
O251       Ni258   1.890   1_556  S
O252       Ni253   1.943       .  S
Ni253       O257   1.941       .  S
Ni253       O255   1.923       .  S
O254       Ni259   1.930       .  S
C256        O257   1.274   1_556  A
C256       C1049   1.475       .  S
O261       Ni267   1.894       .  S
O261        C282   1.266       .  A
O262       Ni285   1.913       .  S
O262        C271   1.269       .  A
O263       Ni267   1.914       .  S
O263       Ni285   1.910       .  S
O263       Ni279   1.947       .  S
O263        H286   0.966       .  S
C264        O281   1.288       .  A
C264        O273   1.278       .  A
C264       C1041   1.484   1_554  S
O265       Ni284   1.930       .  S
O265        C271   1.272       .  A
O266       Ni284   1.902       .  S
O266        C268   1.269       .  A
Ni267       O270   1.917       .  S
Ni267       O272   1.903       .  S
C268        O278   1.274       .  A
C268       C1058   1.481       .  S
O269       Ni285   1.925       .  S
O269        C275   1.271       .  A
O270        C275   1.264       .  A
C271       C1033   1.470   1_455  S
O272        C274   1.274       .  A
O273       Ni284   1.914       .  S
C274        O280   1.281       .  A
C274       C1037   1.484       .  S
C275       C1045   1.479       .  S
H276        O277   0.966       .  S
O277       Ni285   1.906       .  S
O277       Ni279   1.894       .  S
O277       Ni284   1.894       .  S
O278       Ni279   1.937       .  S
Ni279       O283   1.931       .  S
Ni279       O281   1.949       .  S
O280       Ni285   1.958       .  S
C282        O283   1.277       .  A
C282       C1029   1.475       .  S
O287       Ni293   1.899       .  S
O287        C308   1.267       .  A
O288       Ni311   1.916       .  S
O288        C297   1.269       .  A
O289       Ni293   1.915       .  S
O289       Ni311   1.913       .  S
O289       Ni305   1.948       .  S
O289        H312   0.966       .  S
C290        O307   1.290       .  A
C290        O299   1.277       .  A
C290       C1046   1.479       .  S
O291       Ni310   1.923       .  S
O291        C297   1.270       .  A
O292       Ni310   1.906       .  S
O292        C294   1.269       .  A
Ni293       O296   1.923       .  S
Ni293       O298   1.905       .  S
C294        O304   1.275       .  A
C294       C1077   1.486       .  S
O295       Ni311   1.922       .  S
O295        C301   1.272       .  A
O296        C301   1.267       .  A
C297       C1022   1.471   1_455  S
O298        C300   1.273       .  A
O299       Ni310   1.906       .  S
C300        O306   1.279       .  A
C300       C1025   1.485       .  S
C301       C1042   1.483       .  S
H302        O303   0.966       .  S
O303       Ni311   1.906       .  S
O303       Ni305   1.890       .  S
O303       Ni310   1.891       .  S
O304       Ni305   1.941       .  S
Ni305       O309   1.927       .  S
Ni305       O307   1.953       .  S
O306       Ni311   1.953       .  S
C308        O309   1.276       .  A
C308       C1018   1.472       .  S
O313       Ni319   1.924       .  S
O313        C334   1.271       .  A
O314       Ni337   1.929       .  S
O314        C323   1.274       .  A
O315       Ni319   1.888       .  S
O315       Ni337   1.897       .  S
O315       Ni331   1.912       .  S
O315        H338   0.966       .  S
C316        O333   1.278       .  A
C316        O325   1.271       .  A
C316       C1006   1.476       .  S
O317       Ni336   1.906   1_554  S
O317        C323   1.266       .  A
O318       Ni336   1.904       .  S
O318        C320   1.271   1_556  A
Ni319       O322   1.907       .  S
Ni319       O324   1.904       .  S
C320        O330   1.274       .  A
C320       C1001   1.485   1_554  S
O321       Ni337   1.944       .  S
O321        C327   1.287       .  A
O322        C327   1.278       .  A
C323        C993   1.474       .  S
O324        C326   1.268       .  A
O325       Ni336   1.911       .  S
C326        O332   1.273       .  A
C326       C1013   1.482       .  S
C327       C1009   1.474       .  S
H328        O329   0.966       .  S
O329       Ni337   1.927       .  S
O329       Ni331   1.915       .  S
O329       Ni336   1.908   1_554  S
O330       Ni331   1.941       .  S
Ni331       O335   1.929       .  S
Ni331       O333   1.925   1_554  S
O332       Ni337   1.937       .  S
C334        O335   1.273       .  A
C334        C997   1.478       .  S
O339       Ni345   1.922       .  S
O339        C360   1.270       .  A
O340       Ni363   1.931       .  S
O340        C349   1.276       .  A
O341       Ni345   1.887       .  S
O341       Ni363   1.894       .  S
O341       Ni357   1.912       .  S
O341        H364   0.966       .  S
C342        O359   1.278       .  A
C342        O351   1.271       .  A
C342       C1010   1.477       .  S
O343       Ni362   1.910       .  S
O343        C349   1.268       .  A
O344       Ni362   1.909       .  S
O344        C346   1.272       .  A
Ni345       O348   1.905       .  S
Ni345       O350   1.907       .  S
C346        O356   1.275       .  A
C346        C985   1.488       .  S
O347       Ni363   1.947       .  S
O347        C353   1.288       .  A
O348        C353   1.278       .  A
C349        C977   1.477       .  S
O350        C352   1.268       .  A
O351       Ni362   1.912       .  S
C352        O358   1.277       .  A
C352        C989   1.489       .  S
C353       C1005   1.474       .  S
H354        O355   0.965       .  S
O355       Ni363   1.928       .  S
O355       Ni357   1.913       .  S
O355       Ni362   1.909       .  S
O356       Ni357   1.943       .  S
Ni357       O361   1.923       .  S
Ni357       O359   1.925       .  S
O358       Ni363   1.945       .  S
C360        O361   1.272       .  A
C360        C982   1.472       .  S
O365       Ni371   1.919       .  S
O365        C386   1.268       .  A
O366       Ni389   1.932       .  S
O366        C375   1.274       .  A
O367       Ni371   1.892       .  S
O367       Ni389   1.904       .  S
O367       Ni383   1.912       .  S
O367        H390   0.966       .  S
C368        O385   1.277       .  A
C368        O377   1.271       .  A
C368        C969   1.472       .  S
O369       Ni388   1.897       .  S
O369        C375   1.262       .  A
O370       Ni388   1.900       .  S
O370        C372   1.269       .  A
Ni371       O374   1.909       .  S
Ni371       O376   1.897       .  S
C372        O382   1.272       .  A
C372       C1066   1.484       .  S
O373       Ni389   1.931       .  S
O373        C379   1.284       .  A
O374        C379   1.278       .  A
C375        C965   1.473       .  S
O376        C378   1.265       .  A
O377       Ni388   1.901       .  S
C378        O384   1.274       .  A
C378       C1014   1.468       .  S
C379        C974   1.471       .  S
H380        O381   0.966       .  S
O381       Ni389   1.926       .  S
O381       Ni383   1.915       .  S
O381       Ni388   1.909       .  S
O382       Ni383   1.936       .  S
Ni383       O387   1.925       .  S
Ni383       O385   1.926       .  S
O384       Ni389   1.937       .  S
C386        O387   1.270       .  A
C386       C1198   1.473       .  S
O391       Ni397   1.921       .  S
O391        C412   1.269       .  A
O392       Ni415   1.928       .  S
O392        C401   1.273       .  A
O393       Ni397   1.891       .  S
O393       Ni415   1.902       .  S
O393       Ni409   1.912       .  S
O393        H416   0.966       .  S
C394        O411   1.278       .  A
C394        O403   1.272       .  A
C394        C973   1.472   1_556  S
O395       Ni414   1.899       .  S
O395        C401   1.263       .  A
O396       Ni414   1.900       .  S
O396        C398   1.269       .  A
Ni397       O400   1.914       .  S
Ni397       O402   1.898       .  S
C398        O408   1.272       .  A
C398       C1053   1.487       .  S
O399       Ni415   1.924       .  S
O399        C405   1.282       .  A
O400        C405   1.278       .  A
C401        C961   1.470       .  S
O402        C404   1.265       .  A
O403       Ni414   1.902       .  S
C404        O410   1.276       .  A
C404        C990   1.475       .  S
C405        C970   1.470       .  S
H406        O407   0.966       .  S
O407       Ni415   1.925       .  S
O407       Ni409   1.912       .  S
O407       Ni414   1.908       .  S
O408       Ni409   1.939       .  S
Ni409       O413   1.920       .  S
Ni409       O411   1.927       .  S
O410       Ni415   1.946       .  S
C412        O413   1.269       .  A
C412       C1182   1.470       .  S
O417       Ni423   1.925   1_554  S
O417        C438   1.270       .  A
O418       Ni441   1.936       .  S
O418        C427   1.275       .  A
O419       Ni423   1.893   1_554  S
O419       Ni441   1.906       .  S
O419       Ni435   1.910       .  S
O419        H442   0.966       .  S
C420        O437   1.276       .  A
C420        O429   1.272       .  A
C420        C953   1.472       .  S
O421       Ni440   1.898       .  S
O421        C427   1.263       .  A
O422       Ni440   1.904       .  S
O422        C424   1.269       .  A
Ni423       O426   1.913       .  S
Ni423       O428   1.900       .  S
C424        O434   1.273       .  A
C424        C945   1.490       .  S
O425       Ni441   1.928   1_556  S
O425        C431   1.283       .  A
O426        C431   1.278       .  A
C427        C994   1.474       .  S
O428        C430   1.266       .  A
O429       Ni440   1.904       .  S
C430        O436   1.276       .  A
C430        C957   1.475       .  S
C431        C949   1.472       .  S
H432        O433   0.966       .  S
O433       Ni441   1.929       .  S
O433       Ni435   1.914       .  S
O433       Ni440   1.909       .  S
O434       Ni435   1.940       .  S
Ni435       O439   1.921       .  S
Ni435       O437   1.925       .  S
O436       Ni441   1.946   1_556  S
C438        O439   1.269       .  A
C438        C941   1.475   1_565  S
O443       Ni449   1.922       .  S
O443        C464   1.268       .  A
O444       Ni467   1.938       .  S
O444        C453   1.275       .  A
O445       Ni449   1.896       .  S
O445       Ni467   1.909       .  S
O445       Ni461   1.912       .  S
O445        H468   0.966       .  S
C446        O463   1.277       .  A
C446        O455   1.271       .  A
C446        C950   1.473       .  S
O447       Ni466   1.899       .  S
O447        C453   1.263       .  A
O448       Ni466   1.901       .  S
O448        C450   1.269       .  A
Ni449       O452   1.919       .  S
Ni449       O454   1.895       .  S
C450        O460   1.271       .  A
C450        C933   1.484       .  S
O451       Ni467   1.919       .  S
O451        C457   1.280       .  A
O452        C457   1.278       .  A
C453        C978   1.478       .  S
O454        C456   1.264       .  A
O455       Ni466   1.901       .  S
C456        O462   1.277       .  A
C456        C937   1.475       .  S
C457        C954   1.470       .  S
H458        O459   0.966       .  S
O459       Ni467   1.926       .  S
O459       Ni461   1.916       .  S
O459       Ni466   1.911       .  S
O460       Ni461   1.934       .  S
Ni461       O465   1.919       .  S
Ni461       O463   1.928       .  S
O462       Ni467   1.950       .  S
C464        O465   1.269       .  A
C464        C929   1.469   1_565  S
O469       Ni475   1.927       .  S
O469        C490   1.271       .  A
O470       Ni493   1.935       .  S
O470        C479   1.279       .  A
O471       Ni475   1.889       .  S
O471       Ni493   1.890       .  S
O471       Ni487   1.906       .  S
O471        H494   0.966       .  S
C472        O489   1.273       .  A
C472        O481   1.265       .  A
C472        C925   1.482       .  S
O473       Ni492   1.892       .  S
O473        C479   1.266       .  A
O474       Ni492   1.900       .  S
O474        C476   1.273       .  A
Ni475       O478   1.912       .  S
Ni475       O480   1.907       .  S
C476        O486   1.281       .  A
C476       C1034   1.478       .  S
O477       Ni493   1.954       .  S
O477        C483   1.290       .  A
O478        C483   1.279       .  A
C479        C966   1.476       .  S
O480        C482   1.269       .  A
O481       Ni492   1.920       .  S
C482        O488   1.276       .  A
C482        C938   1.487       .  S
C483        C921   1.483       .  S
H484        O485   0.966       .  S
O485       Ni493   1.950       .  S
O485       Ni487   1.910       .  S
O485       Ni492   1.913       .  S
O486       Ni487   1.957       .  S
Ni487       O491   1.920       .  S
Ni487       O489   1.926       .  S
O488       Ni493   1.942       .  S
C490        O491   1.272       .  A
C490       C1161   1.471   1_565  S
O495       Ni501   1.925       .  S
O495        C516   1.270       .  A
O496       Ni519   1.930       .  S
O496        C505   1.277       .  A
O497       Ni501   1.889       .  S
O497       Ni519   1.890       .  S
O497       Ni513   1.905       .  S
O497        H520   0.966       .  S
C498        O515   1.272       .  A
C498        O507   1.266       .  A
C498        C922   1.483       .  S
O499       Ni518   1.896       .  S
O499        C505   1.267       .  A
O500       Ni518   1.899       .  S
O500        C502   1.273       .  A
Ni501       O504   1.909       .  S
Ni501       O506   1.903       .  S
C502        O512   1.282       .  A
C502       C1021   1.480       .  S
O503       Ni519   1.955       .  S
O503        C509   1.291       .  A
O504        C509   1.278       .  A
C505        C962   1.474       .  S
O506        C508   1.268       .  A
O507       Ni518   1.922       .  S
C508        O514   1.276       .  A
C508        C958   1.489       .  S
C509        C926   1.484   1_556  S
H510        O511   0.966       .  S
O511       Ni519   1.951       .  S
O511       Ni513   1.913       .  S
O511       Ni518   1.914       .  S
O512       Ni513   1.959       .  S
Ni513       O517   1.920       .  S
Ni513       O515   1.925       .  S
O514       Ni519   1.946       .  S
C516        O517   1.271       .  A
C516       C1150   1.472   1_565  S
O521       Ni527   1.894       .  S
O521        C542   1.262       .  A
O522       Ni545   1.923       .  S
O522        C531   1.271       .  A
O523       Ni527   1.905       .  S
O523       Ni545   1.909       .  S
O523       Ni539   1.927       .  S
O523        H546   0.966       .  S
C524        O541   1.284       .  A
C524        O533   1.278       .  A
C524        C913   1.472       .  S
O525       Ni544   1.924       .  S
O525        C531   1.269       .  A
O526       Ni544   1.899       .  S
O526        C528   1.265       .  A
Ni527       O530   1.900       .  S
Ni527       O532   1.900       .  S
C528        O538   1.275       .  A
C528        C918   1.473       .  S
O529       Ni545   1.926       .  S
O529        C535   1.277       .  A
O530        C535   1.272       .  A
C531        C905   1.474       .  S
O532        C534   1.269       .  A
O533       Ni544   1.913       .  S
C534        O540   1.275       .  A
C534        C942   1.487       .  S
C535        C909   1.470   1_554  S
H536        O537   0.966       .  S
O537       Ni545   1.911       .  S
O537       Ni539   1.904       .  S
O537       Ni544   1.890       .  S
O538       Ni539   1.942       .  S
Ni539       O543   1.930       .  S
Ni539       O541   1.928       .  S
O540       Ni545   1.943       .  S
C542        O543   1.273       .  A
C542       C1158   1.469       .  S
O547       Ni553   1.897       .  S
O547        C568   1.262       .  A
O548       Ni571   1.924       .  S
O548        C557   1.271       .  A
O549       Ni553   1.905       .  S
O549       Ni571   1.912       .  S
O549       Ni565   1.924       .  S
O549        H572   0.966       .  S
C550        O567   1.281       .  A
C550        O559   1.278       .  A
C550        C910   1.469       .  S
O551       Ni570   1.926       .  S
O551        C557   1.271       .  A
O552       Ni570   1.898       .  S
O552        C554   1.265       .  A
Ni553       O556   1.899       .  S
Ni553       O558   1.898       .  S
C554        O564   1.274       .  A
C554        C901   1.469       .  S
O555       Ni571   1.930       .  S
O555        C561   1.278       .  A
O556        C561   1.271       .  A
C557        C897   1.476       .  S
O558        C560   1.269       .  A
O559       Ni570   1.917       .  S
C560        O566   1.272       .  A
C560        C930   1.483       .  S
C561        C914   1.472       .  S
H562        O563   0.966       .  S
O563       Ni571   1.910       .  S
O563       Ni565   1.904       .  S
O563       Ni570   1.890       .  S
O564       Ni565   1.938       .  S
Ni565       O569   1.929       .  S
Ni565       O567   1.920       .  S
O566       Ni571   1.934       .  S
C568        O569   1.272       .  A
C568       C1146   1.470       .  S
O573       Ni579   1.900       .  S
O573        C594   1.264       .  A
O574       Ni597   1.927       .  S
O574        C583   1.272       .  A
O575       Ni579   1.909       .  S
O575       Ni597   1.913       .  S
O575       Ni591   1.928       .  S
O575        H598   0.966       .  S
C576        O593   1.287       .  A
C576        O585   1.279       .  A
C576        C893   1.475       .  S
O577       Ni596   1.922       .  S
O577        C583   1.270       .  A
O578       Ni596   1.902       .  S
O578        C580   1.268       .  A
Ni579       O582   1.904       .  S
Ni579       O584   1.900       .  S
C580        O590   1.276       .  A
C580        C917   1.487       .  S
O581       Ni597   1.926       .  S
O581        C587   1.279       .  A
O582        C587   1.271       .  A
C583       C1109   1.474       .  S
O584        C586   1.269       .  A
O585       Ni596   1.910       .  S
C586        O592   1.274       .  A
C586        C981   1.484       .  S
C587        C890   1.473       .  S
H588        O589   0.966       .  S
O589       Ni597   1.916       .  S
O589       Ni591   1.899       .  S
O589       Ni596   1.889       .  S
O590       Ni591   1.944       .  S
Ni591       O595   1.934       .  S
Ni591       O593   1.941       .  S
O592       Ni597   1.941       .  S
C594        O595   1.275       .  A
C594       C1194   1.476       .  S
O599       Ni605   1.909   1_556  S
O599        C620   1.267       .  A
O600       Ni623   1.928       .  S
O600        C609   1.273       .  A
O601       Ni605   1.906   1_556  S
O601       Ni623   1.913       .  S
O601       Ni617   1.926       .  S
O601        H624   0.966       .  S
C602        O619   1.286       .  A
C602        O611   1.277       .  A
C602        C889   1.470       .  S
O603       Ni622   1.918       .  S
O603        C609   1.269       .  A
O604       Ni622   1.904       .  S
O604        C606   1.268       .  A
Ni605       O608   1.914       .  S
Ni605       O610   1.905       .  S
C606        O616   1.274       .  A
C606        C902   1.482       .  S
O607       Ni623   1.923   1_554  S
O607        C613   1.277       .  A
O608        C613   1.272       .  A
C609       C1126   1.474       .  S
O610        C612   1.270       .  A
O611       Ni622   1.902       .  S
C612        O618   1.276   1_554  A
C612        C998   1.488       .  S
C613        C894   1.477       .  S
H614        O615   0.966       .  S
O615       Ni623   1.910       .  S
O615       Ni617   1.894       .  S
O615       Ni622   1.886       .  S
O616       Ni617   1.939       .  S
Ni617       O621   1.926       .  S
Ni617       O619   1.943       .  S
O618       Ni623   1.945       .  S
C620        O621   1.274       .  A
C620       C1178   1.472       .  S
O625       Ni631   1.902       .  S
O625        C646   1.265       .  A
O626       Ni649   1.930       .  S
O626        C635   1.273       .  A
O627       Ni631   1.906       .  S
O627       Ni649   1.911       .  S
O627       Ni643   1.927       .  S
O627        H650   0.966       .  S
C628        O645   1.286       .  A
C628        O637   1.278       .  A
C628        C881   1.474       .  S
O629       Ni648   1.923       .  S
O629        C635   1.270       .  A
O630       Ni648   1.903       .  S
O630        C632   1.268       .  A
Ni631       O634   1.912       .  S
Ni631       O636   1.905       .  S
C632        O642   1.274       .  A
C632        C885   1.484       .  S
O633       Ni649   1.923       .  S
O633        C639   1.278       .  A
O634        C639   1.273       .  A
C635        C986   1.478       .  S
O636        C638   1.270       .  A
O637       Ni648   1.907       .  S
C638        O644   1.274       .  A
C638       C1114   1.487       .  S
C639        C877   1.475       .  S
H640        O641   0.966       .  S
O641       Ni649   1.912       .  S
O641       Ni643   1.897       .  S
O641       Ni648   1.886       .  S
O642       Ni643   1.939       .  S
Ni643       O647   1.929       .  S
Ni643       O645   1.941       .  S
O644       Ni649   1.941       .  S
C646        O647   1.273       .  A
C646       C1062   1.470       .  S
O651       Ni657   1.901   1_556  S
O651        C672   1.264       .  A
O652       Ni675   1.927       .  S
O652        C661   1.273       .  A
O653       Ni657   1.906   1_556  S
O653       Ni675   1.910       .  S
O653       Ni669   1.924       .  S
O653        H676   0.966       .  S
C654        O671   1.285       .  A
C654        O663   1.279       .  A
C654        C878   1.473       .  S
O655       Ni674   1.923       .  S
O655        C661   1.270       .  A
O656       Ni674   1.901       .  S
O656        C658   1.268       .  A
Ni657       O660   1.910       .  S
Ni657       O662   1.902       .  S
C658        O668   1.276       .  A
C658        C873   1.485       .  S
O659       Ni675   1.924   1_554  S
O659        C665   1.279       .  A
O660        C665   1.273       .  A
C661       C1002   1.475       .  S
O662        C664   1.269       .  A
O663       Ni674   1.911       .  S
C664        O670   1.273   1_554  A
C664       C1130   1.486       .  S
C665        C882   1.473       .  S
H666        O667   0.966       .  S
O667       Ni675   1.914       .  S
O667       Ni669   1.899       .  S
O667       Ni674   1.887       .  S
O668       Ni669   1.942       .  S
Ni669       O673   1.933       .  S
Ni669       O671   1.938       .  S
O670       Ni675   1.941       .  S
C672        O673   1.274       .  A
C672       C1050   1.473       .  S
O677       Ni683   1.899       .  S
O677        C698   1.263       .  A
O678       Ni701   1.930       .  S
O678        C687   1.272       .  A
O679       Ni683   1.911       .  S
O679       Ni701   1.915       .  S
O679       Ni695   1.924       .  S
O679        H702   0.966       .  S
C680        O697   1.282       .  A
C680        O689   1.278       .  A
C680        C869   1.472       .  S
O681       Ni700   1.925       .  S
O681        C687   1.269       .  A
O682       Ni700   1.897       .  S
O682        C684   1.264       .  A
Ni683       O686   1.901       .  S
Ni683       O688   1.902       .  S
C684        O694   1.274       .  A
C684        C886   1.470       .  S
O685       Ni701   1.923       .  S
O685        C691   1.277       .  A
O686        C691   1.271       .  A
C687        C946   1.477       .  S
O688        C690   1.270       .  A
O689       Ni700   1.918       .  S
C690        O696   1.274       .  A
C690        C862   1.488       .  S
C691        C865   1.469   1_554  S
H692        O693   0.966       .  S
O693       Ni701   1.911       .  S
O693       Ni695   1.907       .  S
O693       Ni700   1.896       .  S
O694       Ni695   1.939       .  S
Ni695       O699   1.929       .  S
Ni695       O697   1.924       .  S
O696       Ni701   1.941       .  S
C698        O699   1.272       .  A
C698       C1030   1.472       .  S
O703       Ni709   1.899       .  S
O703        C724   1.263       .  A
O704       Ni727   1.921       .  S
O704        C713   1.270       .  A
O705       Ni709   1.906       .  S
O705       Ni727   1.910       .  S
O705       Ni721   1.924       .  S
O705        H728   0.966       .  S
C706        O723   1.282       .  A
C706        O715   1.277       .  A
C706        C866   1.470       .  S
O707       Ni726   1.920       .  S
O707        C713   1.269       .  A
O708       Ni726   1.897       .  S
O708        C710   1.265       .  A
Ni709       O712   1.902       .  S
Ni709       O714   1.902       .  S
C710        O720   1.275       .  A
C710        C874   1.470       .  S
O711       Ni727   1.930       .  S
O711        C717   1.279       .  A
O712        C717   1.272       .  A
C713        C934   1.471       .  S
O714        C716   1.269       .  A
O715       Ni726   1.909       .  S
C716        O722   1.272       .  A
C716        C858   1.486       .  S
C717        C870   1.475       .  S
H718        O719   0.966       .  S
O719       Ni727   1.915       .  S
O719       Ni721   1.904       .  S
O719       Ni726   1.891       .  S
O720       Ni721   1.940       .  S
Ni721       O725   1.927       .  S
Ni721       O723   1.927       .  S
O722       Ni727   1.937       .  S
C724        O725   1.272       .  A
C724       C1017   1.470       .  S
O729       Ni735   1.927   1_554  S
O729        C750   1.270       .  A
O730       Ni753   1.935       .  S
O730        C739   1.274       .  A
O731       Ni735   1.892   1_554  S
O731       Ni753   1.909       .  S
O731       Ni747   1.912       .  S
O731        H754   0.966       .  S
C732        O749   1.278       .  A
C732        O741   1.273       .  A
C732        C850   1.473       .  S
O733       Ni752   1.897       .  S
O733        C739   1.263       .  A
O734       Ni752   1.904       .  S
O734        C736   1.269       .  A
Ni735       O738   1.917       .  S
Ni735       O740   1.897       .  S
C736        O746   1.271       .  A
C736        C906   1.487       .  S
O737       Ni753   1.921   1_556  S
O737        C743   1.280       .  A
O738        C743   1.278       .  A
C739       C1122   1.472       .  S
O740        C742   1.266       .  A
O741       Ni752   1.904       .  S
C742        O748   1.277       .  A
C742        C854   1.474       .  S
C743        C845   1.471       .  S
H744        O745   0.966       .  S
O745       Ni753   1.924       .  S
O745       Ni747   1.909       .  S
O745       Ni752   1.906       .  S
O746       Ni747   1.935       .  S
Ni747       O751   1.921       .  S
Ni747       O749   1.926       .  S
O748       Ni753   1.947   1_556  S
C750        O751   1.269       .  A
C750        C861   1.475   1_545  S
O755       Ni761   1.926       .  S
O755        C776   1.271       .  A
O756       Ni779   1.935       .  S
O756        C765   1.273       .  A
O757       Ni761   1.891       .  S
O757       Ni779   1.906       .  S
O757       Ni773   1.912       .  S
O757        H780   0.966       .  S
C758        O775   1.279       .  A
C758        O767   1.273       .  A
C758        C846   1.471       .  S
O759       Ni778   1.894       .  S
O759        C765   1.262       .  A
O760       Ni778   1.904       .  S
O760        C762   1.269       .  A
Ni761       O764   1.923       .  S
Ni761       O766   1.895       .  S
C762        O772   1.273       .  A
C762        C898   1.489       .  S
O763       Ni779   1.918       .  S
O763        C769   1.281       .  A
O764        C769   1.279       .  A
C765       C1106   1.472       .  S
O766        C768   1.265       .  A
O767       Ni778   1.901       .  S
C768        O774   1.277       .  A
C768        C841   1.473       .  S
C769        C849   1.471       .  S
H770        O771   0.966       .  S
O771       Ni779   1.927       .  S
O771       Ni773   1.907       .  S
O771       Ni778   1.905       .  S
O772       Ni773   1.939       .  S
Ni773       O777   1.920       .  S
Ni773       O775   1.930       .  S
O774       Ni779   1.949       .  S
C776        O777   1.271       .  A
C776        C857   1.474   1_545  S
O781       Ni787   1.927       .  S
O781        C802   1.271       .  A
O782       Ni805   1.932       .  S
O782        C791   1.278       .  A
O783       Ni787   1.890       .  S
O783       Ni805   1.890       .  S
O783       Ni799   1.904       .  S
O783        H806   0.966       .  S
C784        O801   1.271       .  A
C784        O793   1.265       .  A
C784        C837   1.482       .  S
O785       Ni804   1.895       .  S
O785        C791   1.266       .  A
O786       Ni804   1.899       .  S
O786        C788   1.274       .  A
Ni787       O790   1.912       .  S
Ni787       O792   1.905       .  S
C788        O798   1.284       .  A
C788       C1166   1.481       .  S
O789       Ni805   1.953       .  S
O789        C795   1.290       .  A
O790        C795   1.278       .  A
C791       C1090   1.476       .  S
O792        C794   1.269       .  A
O793       Ni804   1.923       .  S
C794        O800   1.275       .  A
C794        C842   1.485       .  S
C795        C834   1.484       .  S
H796        O797   0.966       .  S
O797       Ni805   1.954       .  S
O797       Ni799   1.911       .  S
O797       Ni804   1.914       .  S
O798       Ni799   1.961       .  S
Ni799       O803   1.923       .  S
Ni799       O801   1.925       .  S
O800       Ni805   1.939       .  S
C802        O803   1.272       .  A
C802       C1038   1.474   1_545  S
O807       Ni813   1.924       .  S
O807        C828   1.271       .  A
O808       Ni831   1.932       .  S
O808        C817   1.278       .  A
O809       Ni813   1.890       .  S
O809       Ni831   1.891       .  S
O809       Ni825   1.905       .  S
O809        H832   0.966       .  S
C810        O827   1.272       .  A
C810        O819   1.265       .  A
C810        C833   1.484       .  S
O811       Ni830   1.900       .  S
O811        C817   1.267       .  A
O812       Ni830   1.901       .  S
O812        C814   1.275       .  A
Ni813       O816   1.911       .  S
Ni813       O818   1.904       .  S
C814        O824   1.283       .  A
C814       C1154   1.482       .  S
O815       Ni831   1.953       .  S
O815        C821   1.290       .  A
O816        C821   1.278       .  A
C817       C1082   1.479       .  S
O818        C820   1.269       .  A
O819       Ni830   1.921       .  S
C820        O826   1.276       .  A
C820        C853   1.487       .  S
C821        C838   1.485   1_556  S
H822        O823   0.966       .  S
O823       Ni831   1.954       .  S
O823       Ni825   1.916       .  S
O823       Ni830   1.916       .  S
O824       Ni825   1.959       .  S
Ni825       O829   1.926       .  S
Ni825       O827   1.928       .  S
O826       Ni831   1.943       .  S
C828        O829   1.273       .  A
C828       C1026   1.475   1_545  S
C833        C834   1.359       .  D
C833        H835   1.086       .  S
C834        H836   1.086       .  S
C837        C838   1.358       .  D
C837        H839   1.086       .  S
C838        H840   1.086       .  S
C841        C842   1.352       .  D
C841        H843   1.087       .  S
C842        H844   1.086       .  S
C845        C846   1.350       .  D
C845        H847   1.087       .  S
C846        H848   1.086       .  S
C849        C850   1.350       .  D
C849        H851   1.087       .  S
C850        H852   1.086       .  S
C853        C854   1.352       .  D
C853        H855   1.086       .  S
C854        H856   1.087       .  S
C857        C858   1.346       .  D
C857        H859   1.087       .  S
C858        H860   1.086       .  S
C861        C862   1.348       .  D
C861        H863   1.087       .  S
C862        H864   1.086       .  S
C865        C866   1.351       .  D
C865        H867   1.087       .  S
C866        H868   1.087       .  S
C869        C870   1.352       .  D
C869        H871   1.087       .  S
C870        H872   1.086       .  S
C873        C874   1.352       .  D
C873        H875   1.087       .  S
C874        H876   1.086       .  S
C877        C878   1.352       .  D
C877        H879   1.087       .  S
C878        H880   1.086       .  S
C881        C882   1.353       .  D
C881        H883   1.087       .  S
C882        H884   1.087       .  S
C885        C886   1.351       .  D
C885        H887   1.087       .  S
C886        H888   1.087       .  S
C889        C890   1.354       .  D
C889        H891   1.086       .  S
C890        H892   1.087       .  S
C893        C894   1.354       .  D
C893        H895   1.086       .  S
C894        H896   1.087       .  S
C897        C898   1.348       .  D
C897        H899   1.087       .  S
C898        H900   1.086       .  S
C901        C902   1.351       .  D
C901        H903   1.086       .  S
C902        H904   1.087       .  S
C905        C906   1.345       .  D
C905        H907   1.087       .  S
C906        H908   1.086       .  S
C909        C910   1.350       .  D
C909        H911   1.086       .  S
C910        H912   1.087       .  S
C913        C914   1.352       .  D
C913        H915   1.087       .  S
C914        H916   1.086       .  S
C917        C918   1.353       .  D
C917        H919   1.087       .  S
C918        H920   1.086       .  S
C921        C922   1.358       .  D
C921        H923   1.086       .  S
C922        H924   1.086       .  S
C925        C926   1.359       .  D
C925        H927   1.086       .  S
C926        H928   1.086       .  S
C929        C930   1.345       .  D
C929        H931   1.087       .  S
C930        H932   1.086       .  S
C933        C934   1.345       .  D
C933        H935   1.086       .  S
C934        H936   1.087       .  S
C937        C938   1.352       .  D
C937        H939   1.087       .  S
C938        H940   1.086       .  S
C941        C942   1.349       .  D
C941        H943   1.087       .  S
C942        H944   1.086       .  S
C945        C946   1.347       .  D
C945        H947   1.086       .  S
C946        H948   1.087       .  S
C949        C950   1.352       .  D
C949        H951   1.087       .  S
C950        H952   1.087       .  S
C953        C954   1.350       .  D
C953        H955   1.087       .  S
C954        H956   1.087       .  S
C957        C958   1.354       .  D
C957        H959   1.087       .  S
C958        H960   1.086       .  S
C961        C962   1.356       .  D
C961        H963   1.087       .  S
C962        H964   1.087       .  S
C965        C966   1.359       .  D
C965        H967   1.087       .  S
C966        H968   1.086       .  S
C969        C970   1.351       .  D
C969        H971   1.086       .  S
C970        H972   1.087       .  S
C973        C974   1.352       .  D
C973        H975   1.087       .  S
C974        H976   1.087       .  S
C977        C978   1.356       .  D
C977        H979   1.087       .  S
C978        H980   1.086       .  S
C981        C982   1.347       .  D
C981        H983   1.086       .  S
C982        H984   1.087       .  S
C985        C986   1.346       .  D
C985        H987   1.086       .  S
C986        H988   1.087       .  S
C989        C990   1.354       .  D
C989        H991   1.086       .  S
C990        H992   1.087       .  S
C993        C994   1.355       .  D
C993        H995   1.087       .  S
C994        H996   1.087   1_554  S
C997        C998   1.348       .  D
C997        H999   1.087       .  S
C998       H1000   1.086   1_554  S
C1001      C1002   1.346       .  D
C1001      H1003   1.086   1_556  S
C1002      H1004   1.087       .  S
C1005      C1006   1.355       .  D
C1005      H1007   1.086       .  S
C1006      H1008   1.087       .  S
C1009      C1010   1.355       .  D
C1009      H1011   1.086       .  S
C1010      H1012   1.087       .  S
C1013      C1014   1.351       .  D
C1013      H1015   1.087       .  S
C1014      H1016   1.086       .  S
C1017      C1018   1.355       .  D
C1017      H1019   1.087       .  S
C1018      H1020   1.087       .  S
C1021      C1022   1.346       .  D
C1021      H1023   1.086       .  S
C1022      H1024   1.087       .  S
C1025      C1026   1.345       .  D
C1025      H1027   1.087       .  S
C1026      H1028   1.087       .  S
C1029      C1030   1.356       .  D
C1029      H1031   1.087       .  S
C1030      H1032   1.087       .  S
C1033      C1034   1.345       .  D
C1033      H1035   1.087       .  S
C1034      H1036   1.087       .  S
C1037      C1038   1.345       .  D
C1037      H1039   1.087       .  S
C1038      H1040   1.087       .  S
C1041      C1042   1.357       .  D
C1041      H1043   1.086       .  S
C1042      H1044   1.087       .  S
C1045      C1046   1.358       .  D
C1045      H1047   1.087       .  S
C1046      H1048   1.086       .  S
C1049      C1050   1.355       .  D
C1049      H1051   1.086   1_556  S
C1050      H1052   1.087       .  S
C1053      C1054   1.347       .  D
C1053      H1055   1.086       .  S
C1054      H1056   1.087       .  S
C1057      C1058   1.350       .  D
C1057      H1059   1.087       .  S
C1058      H1060   1.087       .  S
C1061      C1062   1.353       .  D
C1061      H1063   1.086       .  S
C1062      H1064   1.087       .  S
C1065      C1066   1.345       .  D
C1065      H1067   1.087       .  S
C1066      H1068   1.086       .  S
C1069      C1070   1.351       .  D
C1069      H1071   1.087       .  S
C1070      H1072   1.086       .  S
C1073      C1074   1.352       .  D
C1073      H1075   1.086       .  S
C1074      H1076   1.087       .  S
C1077      C1078   1.351       .  D
C1077      H1079   1.087       .  S
C1078      H1080   1.087       .  S
C1081      C1082   1.357       .  D
C1081      H1083   1.087       .  S
C1082      H1084   1.087       .  S
C1085      C1086   1.344       .  D
C1085      H1087   1.087       .  S
C1086      H1088   1.086       .  S
C1089      C1090   1.356       .  D
C1089      H1091   1.087       .  S
C1090      H1092   1.087       .  S
C1093      C1094   1.346       .  D
C1093      H1095   1.087       .  S
C1094      H1096   1.086       .  S
C1097      C1098   1.350       .  D
C1097      H1099   1.087       .  S
C1098      H1100   1.087       .  S
C1101      C1102   1.351       .  D
C1101      H1103   1.087       .  S
C1102      H1104   1.087       .  S
C1105      C1106   1.353       .  D
C1105      H1107   1.087       .  S
C1106      H1108   1.087       .  S
C1109      C1110   1.346       .  D
C1109      H1111   1.087       .  S
C1110      H1112   1.086       .  S
C1113      C1114   1.347       .  D
C1113      H1115   1.087       .  S
C1114      H1116   1.086       .  S
C1117      C1118   1.353       .  D
C1117      H1119   1.087       .  S
C1118      H1120   1.087       .  S
C1121      C1122   1.354       .  D
C1121      H1123   1.087       .  S
C1122      H1124   1.087   1_554  S
C1125      C1126   1.345       .  D
C1125      H1127   1.086   1_556  S
C1126      H1128   1.087       .  S
C1129      C1130   1.347       .  D
C1129      H1131   1.087       .  S
C1130      H1132   1.087   1_554  S
C1133      C1134   1.353       .  D
C1133      H1135   1.087       .  S
C1134      H1136   1.086       .  S
C1137      C1138   1.354       .  D
C1137      H1139   1.086       .  S
C1138      H1140   1.087       .  S
C1141      C1142   1.354       .  D
C1141      H1143   1.087       .  S
C1142      H1144   1.087       .  S
C1145      C1146   1.355       .  D
C1145      H1147   1.087       .  S
C1146      H1148   1.087       .  S
C1149      C1150   1.344       .  D
C1149      H1151   1.087       .  S
C1150      H1152   1.087       .  S
C1153      C1154   1.345       .  D
C1153      H1155   1.087       .  S
C1154      H1156   1.086       .  S
C1157      C1158   1.356       .  D
C1157      H1159   1.087       .  S
C1158      H1160   1.087       .  S
C1161      C1162   1.344       .  D
C1161      H1163   1.087       .  S
C1162      H1164   1.087       .  S
C1165      C1166   1.345       .  D
C1165      H1167   1.087       .  S
C1166      H1168   1.087       .  S
C1169      C1170   1.359       .  D
C1169      H1171   1.086       .  S
C1170      H1172   1.086       .  S
C1173      C1174   1.357       .  D
C1173      H1175   1.086       .  S
C1174      H1176   1.086       .  S
C1177      C1178   1.353       .  D
C1177      H1179   1.086   1_556  S
C1178      H1180   1.087       .  S
C1181      C1182   1.345       .  D
C1181      H1183   1.086       .  S
C1182      H1184   1.087       .  S
C1185      C1186   1.346       .  D
C1185      H1187   1.087       .  S
C1186      H1188   1.086       .  S
C1189      C1190   1.352       .  D
C1189      H1191   1.087       .  S
C1190      H1192   1.087       .  S
C1193      C1194   1.357       .  D
C1193      H1195   1.086       .  S
C1194      H1196   1.087       .  S
C1197      C1198   1.346       .  D
C1197      H1199   1.086       .  S
C1198      H1200   1.087       .  S
C1201      C1202   1.349       .  D
C1201      H1203   1.087       .  S
C1202      H1204   1.086       .  S
C1205      C1206   1.353       .  D
C1205      H1207   1.087       .  S
C1206      H1208   1.086       .  S
C1209      C1210   1.351       .  D
C1209      H1211   1.086       .  S
C1210      H1212   1.087       .  S
C1213      C1214   1.354       .  D
C1213      H1215   1.086       .  S
C1214      H1216   1.087       .  S
