geometry optimzed in LAMMPS
_audit_creation_date              2020-12-01 
_audit_creation_method            'lammps2cif' 
_symmetry_space_group_name_H-M    'P1' 
_symmetry_Int_Tables_number       1 
_symmetry_cell_setting            triclinic 
loop_ 
_symmetry_equiv_pos_as_xyz 
  x,y,z 
_cell_length_a                    41.88655378 
_cell_length_b                    42.45764925497452 
_cell_length_c                    64.85449848442941 
_cell_angle_alpha                 89.83667617116724 
_cell_angle_beta                  89.72513341282712 
_cell_angle_gamma                 90.07103973365814 
loop_ 
_atom_site_label 
_atom_site_type_symbol 
_atom_site_fract_x 
_atom_site_fract_y 
_atom_site_fract_z 
_atom_site_charge 
O1          O  0.43796551  0.05073254  0.68854627    -0.85300
O2          O  0.40685837  0.03484907  0.72342819    -0.82400
C3          C  0.39684684  0.03591877  0.74162590     0.98100
O4          O  0.39072683  0.06225326  0.74957085    -0.82400
O5          O  0.44905534  0.09498787  0.75068225    -0.85100
C6          C  0.47048734  0.11474544  0.74616662     1.02700
O7          O  0.46943426  0.13011325  0.72940998    -0.77800
O8          O  0.47423938  0.08379680  0.70020149    -0.78000
C9          C  0.46699037  0.05723958  0.69273736     1.02600
O10         O  0.38475211  0.09183506  0.67768174    -0.85300
O11         O  0.35247026  0.07682263  0.71356635    -0.82400
C12         C  0.34343669  0.10116691  0.72362052     0.98200
O13         O  0.36318542  0.11774687  0.73317322    -0.82400
O14         O  0.41613121  0.15059348  0.73911347    -0.85000
C15         C  0.41331058  0.16977954  0.72432967     1.02600
O16         O  0.41921248  0.16044580  0.70614559    -0.77800
O17         O  0.43041760  0.11639597  0.67412601    -0.78000
C18         C  0.40427755  0.10698678  0.66674611     1.02600
Cr19       Cr  0.39687063  0.06610675  0.70186173     1.93700
Cr20       Cr  0.40574253  0.10534000  0.74105707     1.93200
Cr21       Cr  0.44584326  0.12091175  0.70318639     1.39100
O22         O  0.41593022  0.09730590  0.71511355    -1.23100
O23         O  0.08417139  0.45935376  0.69645028    -0.85300
O24         O  0.13561706  0.46031125  0.72181261    -0.82400
C25         C  0.12467197  0.46491410  0.73976622     0.98100
O26         O  0.10794194  0.44369213  0.74843505    -0.82400
O27         O  0.07431230  0.38484282  0.75180835    -0.85100
C28         C  0.04617818  0.38790663  0.74519837     1.02700
O29         O  0.04141668  0.39693982  0.72703298    -0.77800
O30         O  0.05096138  0.42110135  0.68859269    -0.78000
C31         C  0.05714777  0.45024532  0.69020842     1.02600
O32         O  0.11361042  0.41412898  0.67108245    -0.85300
O33         O  0.16423845  0.40916037  0.69988644    -0.82400
C34         C  0.17807121  0.40700204  0.71718736     0.98200
O35         O  0.16208518  0.40952449  0.73368587    -0.82400
O36         O  0.12774433  0.35540587  0.73253088    -0.85000
C37         C  0.10881437  0.33534759  0.72516126     1.02600
O38         O  0.08217489  0.34364286  0.71767203    -0.77800
O39         O  0.09345641  0.36860193  0.67970970    -0.78000
C40         C  0.10469536  0.38684402  0.66623345     1.02600
Cr41       Cr  0.12294847  0.43334737  0.69842674     1.93700
Cr42       Cr  0.11644046  0.39904219  0.73962924     1.93200
Cr43       Cr  0.06969436  0.38429382  0.70408228     1.39100
O44         O  0.10270414  0.40558862  0.71402573    -1.23100
O45         O  0.17355736  0.21914413  0.79324807    -0.85300
O46         O  0.12155227  0.20887172  0.76760618    -0.82400
C47         C  0.13626306  0.21130075  0.75064494     0.98100
O48         O  0.15630805  0.19071093  0.74536767    -0.82400
O49         O  0.19453171  0.13631903  0.74709028    -0.85100
C50         C  0.22179925  0.14156426  0.75459161     1.02700
O51         O  0.22445553  0.15228389  0.77257139    -0.77800
O52         O  0.20677530  0.18482431  0.80719138    -0.78000
C53         C  0.19998226  0.21306832  0.80180839     1.02600
O54         O  0.14738627  0.17811576  0.82294087    -0.85300
O55         O  0.10001316  0.15987775  0.79477066    -0.82400
C56         C  0.08838172  0.14953686  0.77811413     0.98200
O57         O  0.10330484  0.15323255  0.76123606    -0.82400
O58         O  0.14200891  0.10546812  0.76616327    -0.85000
C59         C  0.16269726  0.08753921  0.77337339     1.02600
O60         O  0.18602250  0.09826080  0.78376017    -0.77800
O61         O  0.16669647  0.13082570  0.81947452    -0.78000
C62         C  0.15477131  0.15195101  0.83072114     1.02600
Cr63       Cr  0.13722652  0.18924701  0.79378320     1.93700
Cr64       Cr  0.15020248  0.14776469  0.75671339     1.93200
Cr65       Cr  0.19333810  0.14276973  0.79493435     1.39100
O66         O  0.16078564  0.15992695  0.78175098    -1.23100
O67         O  0.32844200  0.30272504  0.80883249    -0.85300
O68         O  0.35818200  0.28886293  0.77293004    -0.82400
C69         C  0.37136662  0.29065227  0.75556690     0.98100
O70         O  0.37624279  0.31724082  0.74741955    -0.82400
O71         O  0.31846759  0.35310950  0.74609894    -0.85100
C72         C  0.29713483  0.37230166  0.75188206     1.02700
O73         O  0.29917957  0.38511113  0.76952831    -0.77800
O74         O  0.29272833  0.33568388  0.79656911    -0.78000
C75         C  0.29965941  0.30903411  0.80412975     1.02600
O76         O  0.38290558  0.34289553  0.81943039    -0.85300
O77         O  0.41379500  0.32611194  0.78345375    -0.82400
C78         C  0.42468945  0.35019112  0.77407022     0.98200
O79         O  0.40629571  0.36973490  0.76568005    -0.82400
O80         O  0.35375380  0.40592325  0.76100263    -0.85000
C81         C  0.35897993  0.42169253  0.77713576     1.02600
O82         O  0.35011846  0.41096431  0.79453592    -0.77800
O83         O  0.33629557  0.36403230  0.82483547    -0.78000
C84         C  0.36312007  0.35521023  0.83163169     1.02600
Cr85       Cr  0.36949341  0.31769652  0.79525929     1.93700
Cr86       Cr  0.36249448  0.36034706  0.75700091     1.93200
Cr87       Cr  0.32186502  0.37247350  0.79551106     1.39100
O88         O  0.35136967  0.34990941  0.78263934    -1.23100
O89         O  0.33196970  0.03638891  0.04807132    -0.85300
O90         O  0.37712114  0.03288556  0.01794336    -0.82400
C91         C  0.36263636  0.03475772  0.00069590     0.98100
O92         O  0.34953337  0.06011680  0.99495520    -0.82400
O93         O  0.32996816  0.12377920  0.99587111    -0.85100
C94         C  0.30170017  0.11993540  0.00165624     1.02700
O95         O  0.29592198  0.10856339  0.01910642    -0.77800
O96         O  0.30096485  0.07715323  0.05485823    -0.78000
C97         C  0.30504106  0.04760521  0.05310559     1.02600
O98         O  0.37093624  0.07623730  0.07321532    -0.85300
O99         O  0.41740292  0.07913022  0.04073134    -0.82400
C100        C  0.42841430  0.08269234  0.02259855     0.98200
O101        O  0.40962762  0.07898209  0.00791544    -0.82400
O102        O  0.38764176  0.13876507  0.01510040    -0.85000
C103        C  0.37154098  0.16057609  0.02315376     1.02600
O104        O  0.34457928  0.15472546  0.03171281    -0.77800
O105        O  0.34916986  0.12240242  0.06817182    -0.78000
C106        C  0.36224070  0.10283797  0.08004414     1.02600
Cr107      Cr  0.37337688  0.05871285  0.04411834     1.93700
Cr108      Cr  0.36792023  0.09968561  0.00557129     1.93200
Cr109      Cr  0.32507798  0.11397225  0.04263755     1.39100
O110        O  0.35502790  0.09068773  0.03109162    -1.23100
O111        O  0.17578825  0.46347150  0.05093146    -0.85300
O112        O  0.12603999  0.46180490  0.02429311    -0.82400
C113        C  0.13909796  0.46463412  0.00673352     0.98100
O114        O  0.15666266  0.44258084  0.99987398    -0.82400
O115        O  0.19001019  0.38266931  0.00003428    -0.85100
C116        C  0.21739799  0.38502834  0.00804911     1.02700
O117        O  0.22023130  0.39739558  0.02546486    -0.77800
O118        O  0.20796878  0.42621313  0.06189283    -0.78000
C119        C  0.20244409  0.45519297  0.05817477     1.02600
O120        O  0.14466167  0.42026251  0.07770637    -0.85300
O121        O  0.09650086  0.41228953  0.04783369    -0.82400
C122        C  0.08392884  0.40828880  0.03031690     0.98200
O123        O  0.10086052  0.40986173  0.01412360    -0.82400
O124        O  0.13434696  0.35556135  0.01837915    -0.85000
C125        C  0.15273491  0.33606497  0.02692137     1.02600
O126        O  0.17831154  0.34516350  0.03556604    -0.77800
O127        O  0.16407297  0.37375051  0.07160571    -0.78000
C128        C  0.15232440  0.39316957  0.08396110     1.02600
Cr129      Cr  0.13722492  0.43699497  0.04927882     1.93700
Cr130      Cr  0.14684922  0.39864361  0.01001609     1.93200
Cr131      Cr  0.19012312  0.38727495  0.04773701     1.39100
O132        O  0.15836852  0.40761839  0.03568103    -1.23100
O133        O  0.43548315  0.30134033  0.94128317    -0.85300
O134        O  0.40588852  0.28416385  0.97675423    -0.82400
C135        C  0.39809755  0.28574140  0.99546158     0.98100
O136        O  0.39212546  0.31193575  0.00370619    -0.82400
O137        O  0.44659780  0.35114667  0.00358783    -0.85100
C138        C  0.46645453  0.37160221  0.99752389     1.02700
O139        O  0.46235555  0.38492285  0.98021917    -0.77800
O140        O  0.47027487  0.33536268  0.95347778    -0.78000
C141        C  0.46412958  0.30851786  0.94603980     1.02600
O142        O  0.37923164  0.34008469  0.93119436    -0.85300
O143        O  0.34958101  0.32117271  0.96715405    -0.82400
C144        C  0.33868640  0.34349791  0.97815096     0.98200
O145        O  0.35684992  0.36259100  0.98704774    -0.82400
O146        O  0.40627308  0.40224106  0.98988680    -0.85000
C147        C  0.40087742  0.41802399  0.97368962     1.02600
O148        O  0.40970723  0.40765842  0.95621388    -0.77800
O149        O  0.42522269  0.36216179  0.92553190    -0.78000
C150        C  0.39840483  0.35321108  0.91888702     1.02600
Cr151      Cr  0.39385962  0.31436198  0.95503968     1.93700
Cr152      Cr  0.40157175  0.35591250  0.99392817     1.93200
Cr153      Cr  0.43960686  0.37079716  0.95475520     1.39100
O154        O  0.41148629  0.34669213  0.96791802    -1.23100
O155        O  0.09112270  0.21776861  0.95389126    -0.85300
O156        O  0.14321030  0.21181903  0.98026501    -0.82400
C157        C  0.12898764  0.21260238  0.99739473     0.98100
O158        O  0.11019067  0.19057368  0.00242091    -0.82400
O159        O  0.07321584  0.13512356  0.99968509    -0.85100
C160        C  0.04649803  0.13865097  0.99098604     1.02700
O161        O  0.04508294  0.14956335  0.97291070    -0.77800
O162        O  0.06146010  0.18239391  0.93829511    -0.78000
C163        C  0.06554142  0.21045543  0.94464511     1.02600
O164        O  0.12297689  0.17906680  0.92482366    -0.85300
O165        O  0.17006309  0.16579560  0.95401255    -0.82400
C166        C  0.18172582  0.15622745  0.97088412     0.98200
O167        O  0.16486628  0.15532482  0.98719337    -0.82400
O168        O  0.12703566  0.10425144  0.98177417    -0.85000
C169        C  0.10847188  0.08648163  0.97196080     1.02600
O170        O  0.08551895  0.09757254  0.96156618    -0.77800
O171        O  0.10570985  0.13093899  0.92714829    -0.78000
C172        C  0.11963513  0.15220225  0.91691090     1.02600
Cr173      Cr  0.13004336  0.19111697  0.95405347     1.93700
Cr174      Cr  0.11780136  0.14760716  0.99079297     1.93200
Cr175      Cr  0.07708880  0.14154750  0.95105100     1.39100
O176        O  0.10817685  0.15973132  0.96533517    -1.23100
O177        O  0.42291828  0.20662933  0.54850112    -0.85300
O178        O  0.37487313  0.20811426  0.51957015    -0.82400
C179        C  0.39035921  0.20983578  0.50274050     0.98100
O180        O  0.40669936  0.18680791  0.49643862    -0.82400
O181        O  0.43608179  0.12745035  0.49624519    -0.85100
C182        C  0.46330389  0.13085207  0.50412617     1.02700
O183        O  0.46572805  0.13787363  0.52284055    -0.77800
O184        O  0.45260155  0.16678417  0.55892328    -0.78000
C185        C  0.44890438  0.19628104  0.55588921     1.02600
O186        O  0.38698449  0.16458188  0.57364151    -0.85300
O187        O  0.34054557  0.15860964  0.54182049    -0.82400
C188        C  0.32996725  0.15441972  0.52371493     0.98200
O189        O  0.34874347  0.15766139  0.50856909    -0.82400
O190        O  0.37832820  0.10199786  0.51251305    -0.85000
C191        C  0.39394591  0.08065016  0.52125557     1.02600
O192        O  0.41915220  0.08736593  0.53134140    -0.77800
O193        O  0.40506348  0.11745669  0.56778027    -0.78000
C194        C  0.39369163  0.13736390  0.58011697     1.02600
Cr195      Cr  0.38268183  0.18193740  0.54494016     1.93700
Cr196      Cr  0.39362697  0.14411567  0.50557868     1.93200
Cr197      Cr  0.43318088  0.12906942  0.54425081     1.39100
O198        O  0.40357899  0.15172101  0.53167506    -1.23100
O199        O  0.32845921  0.44959899  0.44112296    -0.85300
O200        O  0.35605572  0.46647515  0.47695175    -0.82400
C201        C  0.36493344  0.46504307  0.49532190     0.98100
O202        O  0.36792010  0.43884723  0.50430391    -0.82400
O203        O  0.31045018  0.40391329  0.50352093    -0.85100
C204        C  0.28883310  0.38594426  0.49687279     1.02700
O205        O  0.29318863  0.37000822  0.48059594    -0.77800
O206        O  0.29094878  0.41641412  0.45133918    -0.78000
C207        C  0.29897996  0.44293111  0.44408332     1.02600
O208        O  0.38430659  0.40754884  0.43417167    -0.85300
O209        O  0.41106775  0.42569998  0.47004718    -0.82400
C210        C  0.41972639  0.40286960  0.48148659     0.98200
O211        O  0.39966289  0.38502866  0.48993879    -0.82400
O212        O  0.34726222  0.34895492  0.49289983    -0.85000
C213        C  0.35413907  0.33234990  0.47734053     1.02600
O214        O  0.34765013  0.34238430  0.45945380    -0.77800
O215        O  0.33888090  0.38549925  0.42720997    -0.78000
C216        C  0.36688774  0.39304429  0.42178829     1.02600
Cr217      Cr  0.36826247  0.43480372  0.45645043     1.93700
Cr218      Cr  0.35530578  0.39517137  0.49560799     1.93200
Cr219      Cr  0.31993260  0.38018847  0.45563327     1.39100
O220        O  0.34780051  0.40383596  0.46922563    -1.23100
O221        O  0.17220968  0.03162883  0.44530118    -0.85300
O222        O  0.12121553  0.03205244  0.47256982    -0.82400
C223        C  0.13319875  0.03001244  0.49039048     0.98100
O224        O  0.15081830  0.05190397  0.49720877    -0.82400
O225        O  0.18405926  0.11086601  0.49763675    -0.85100
C226        C  0.21165093  0.10800368  0.48998203     1.02700
O227        O  0.21499822  0.09699081  0.47216363    -0.77800
O228        O  0.20353929  0.07034542  0.43500072    -0.78000
C229        C  0.19892146  0.04129477  0.43842761     1.02600
O230        O  0.13894321  0.07567690  0.41967825    -0.85300
O231        O  0.09115104  0.08179643  0.44963638    -0.82400
C232        C  0.07923091  0.08826151  0.46713052     0.98200
O233        O  0.09567767  0.08437305  0.48317898    -0.82400
O234        O  0.12953612  0.13895246  0.47905125    -0.85000
C235        C  0.14870560  0.15840599  0.47105352     1.02600
O236        O  0.17426739  0.14939405  0.46242200    -0.77800
O237        O  0.16029651  0.12179702  0.42559697    -0.78000
C238        C  0.14569814  0.10325863  0.41387866     1.02600
Cr239      Cr  0.13252817  0.05751520  0.44775012     1.93700
Cr240      Cr  0.14138047  0.09564487  0.48723806     1.93200
Cr241      Cr  0.18556785  0.10788383  0.44971864     1.39100
O242        O  0.15339063  0.08704176  0.46149986    -1.23100
O243        O  0.08238149  0.27650696  0.54743869    -0.85300
O244        O  0.13380262  0.28176927  0.52102906    -0.82400
C245        C  0.12055995  0.27898876  0.50363215     0.98100
O246        O  0.10131930  0.29983429  0.49729097    -0.82400
O247        O  0.06509215  0.35679596  0.49672956    -0.85100
C248        C  0.03789113  0.35228227  0.50463618     1.02700
O249        O  0.03555855  0.33996120  0.52220048    -0.77800
O250        O  0.04969575  0.31296799  0.55898397    -0.78000
C251        C  0.05541479  0.28431085  0.55476147     1.02600
O252        O  0.11096371  0.32072258  0.57481431    -0.85300
O253        O  0.15900545  0.33332956  0.54512852    -0.82400
C254        C  0.17004194  0.34149092  0.52765282     0.98200
O255        O  0.15448314  0.33498263  0.51158571    -0.82400
O256        O  0.11794918  0.38739755  0.51511613    -0.85000
C257        C  0.09836694  0.40588710  0.52356287     1.02600
O258        O  0.07315101  0.39543252  0.53212573    -0.77800
O259        O  0.09020318  0.36654395  0.56814310    -0.78000
C260        C  0.10273157  0.34776215  0.58076254     1.02600
Cr261      Cr  0.12004456  0.30523980  0.54617754     1.93700
Cr262      Cr  0.10856205  0.34371955  0.50697688     1.93200
Cr263      Cr  0.06461073  0.35232012  0.54449264     1.39100
O264        O  0.09743413  0.33379591  0.53256778    -1.23100
O265        O  0.43568737  0.45010649  0.31782127    -0.85300
O266        O  0.40496941  0.46460925  0.28243412    -0.82400
C267        C  0.39315140  0.46304862  0.26474375     0.98100
O268        O  0.39134297  0.43664416  0.25579836    -0.82400
O269        O  0.45354808  0.40975074  0.25312232    -0.85100
C270        C  0.47819536  0.39487264  0.25879193     1.02700
O271        O  0.47808047  0.37854680  0.27521526    -0.77800
O272        O  0.47613458  0.42260714  0.30580433    -0.78000
C273        C  0.46536982  0.44762851  0.31381617     1.02600
O274        O  0.38635361  0.40127563  0.32494438    -0.85300
O275        O  0.35621932  0.41781380  0.29030519    -0.82400
C276        C  0.34894575  0.39245554  0.28109226     0.98200
O277        O  0.36974078  0.37692649  0.27146422    -0.82400
O278        O  0.42732673  0.35014913  0.26368467    -0.85000
C279        C  0.42654535  0.33082234  0.27852222     1.02600
O280        O  0.43045294  0.34074068  0.29677126    -0.77800
O281        O  0.43440951  0.38359593  0.33013856    -0.78000
C282        C  0.40625783  0.38838911  0.33651606     1.02600
Cr283      Cr  0.39777872  0.43117393  0.30288214     1.93700
Cr284      Cr  0.41129916  0.39444209  0.26301969     1.93200
Cr285      Cr  0.45224001  0.38268472  0.30118863     1.39100
O286        O  0.42064773  0.40319045  0.28906159    -1.23100
O287        O  0.19176704  0.30576862  0.19057484    -0.85300
O288        O  0.15782821  0.28918472  0.22437254    -0.82400
C289        C  0.14534189  0.28997804  0.24194946     0.98100
O290        O  0.14342104  0.31569401  0.25148457    -0.82400
O291        O  0.20419026  0.34570442  0.25491958    -0.85100
C292        C  0.22687755  0.36442497  0.25074925     1.02700
O293        O  0.22655362  0.38062919  0.23435168    -0.77800
O294        O  0.22958785  0.33547986  0.20398656    -0.78000
C295        C  0.22086078  0.30992835  0.19555161     1.02600
O296        O  0.14179059  0.35184476  0.18095932    -0.85300
O297        O  0.10771163  0.33447450  0.21522312    -0.82400
C298        C  0.09946250  0.35817696  0.22598268     0.98200
O299        O  0.11943186  0.37325352  0.23644254    -0.82400
O300        O  0.17392906  0.40318399  0.24421629    -0.85000
C301        C  0.17142692  0.42285286  0.22969238     1.02600
O302        O  0.17810895  0.41435728  0.21145395    -0.77800
O303        O  0.18921927  0.37287895  0.17849363    -0.78000
C304        C  0.16248686  0.36662719  0.17076687     1.02600
Cr305      Cr  0.15144493  0.32271569  0.20390403     1.93700
Cr306      Cr  0.16133921  0.35838994  0.24472784     1.93200
Cr307      Cr  0.20335442  0.37414618  0.20777774     1.39100
O308        O  0.17198955  0.35136723  0.21867131    -1.23100
O309        O  0.08364346  0.05450930  0.31079544    -0.85300
O310        O  0.11578594  0.04049944  0.27600281    -0.82400
C311        C  0.12733112  0.04177721  0.25818182     0.94900
O312        O  0.12898176  0.06780390  0.24877352    -0.82400
O313        O  0.06672282  0.09253601  0.24602281    -0.85100
C314        C  0.04189461  0.10782336  0.25068085     1.02700
O315        O  0.04084984  0.12445491  0.26691173    -0.77800
O316        O  0.04291559  0.08000400  0.29735522    -0.78000
C317        C  0.05400799  0.05597471  0.30642039     1.02600
O318        O  0.13075286  0.10512821  0.31774810    -0.85300
O319        O  0.16386696  0.08867501  0.28327925    -0.82400
C320        C  0.17080921  0.11321801  0.27278983     0.98200
O321        O  0.14939801  0.12794616  0.26328118    -0.82400
O322        O  0.09093479  0.15281637  0.25656749    -0.85000
C323        C  0.09303353  0.17207491  0.27131096     1.02600
O324        O  0.08733030  0.16254471  0.28950154    -0.77800
O325        O  0.08131844  0.11892369  0.32259310    -0.78000
C326        C  0.10920613  0.11518931  0.32945182     1.02600
Cr327      Cr  0.12178423  0.07429110  0.29597892     1.93700
Cr328      Cr  0.10815632  0.10933512  0.25561897     1.93200
Cr329      Cr  0.06564018  0.12041499  0.29329635     1.39100
O330        O  0.09849430  0.10094762  0.28168429    -1.23100
O331        O  0.34454330  0.21601445  0.20028270    -0.85300
O332        O  0.39622768  0.20882584  0.22545326    -0.82400
C333        C  0.38478412  0.21295925  0.24340392     0.98100
O334        O  0.36483833  0.19321684  0.25053134    -0.82400
O335        O  0.32464915  0.13813587  0.25166313    -0.85100
C336        C  0.29725507  0.14367918  0.24433145     1.02700
O337        O  0.29443792  0.15332407  0.22611708    -0.77800
O338        O  0.30903413  0.18148327  0.18967320    -0.78000
C339        C  0.31693898  0.20994477  0.19363788     1.02600
O340        O  0.36930692  0.17022582  0.17205175    -0.85300
O341        O  0.41764597  0.15660094  0.20080400    -0.82400
C342        C  0.42979704  0.14855464  0.21785088     0.98200
O343        O  0.41531375  0.15418033  0.23462927    -0.82400
O344        O  0.37588366  0.10471440  0.23296316    -0.85000
C345        C  0.35529867  0.08653128  0.22561336     1.02600
O346        O  0.33111717  0.09718530  0.21603107    -0.77800
O347        O  0.34754458  0.12503820  0.17920968    -0.78000
C348        C  0.36052235  0.14315062  0.16629341     1.02600
Cr349      Cr  0.38023880  0.18575095  0.20064678     1.93700
Cr350      Cr  0.36880626  0.14866639  0.24049041     1.93200
Cr351      Cr  0.32323612  0.14062484  0.20352250     1.39100
O352        O  0.35701529  0.15836495  0.21496139    -1.23100
C353        C  0.46093058  0.10480018  0.23164116    -0.12200
C354        C  0.46057234  0.13207883  0.21938156     0.04800
C355        C  0.48971297  0.14658702  0.21399664    -0.07500
C356        C  0.01676320  0.13262692  0.22041822    -0.08300
C357        C  0.01512799  0.11004314  0.23627202    -0.02800
C358        C  0.48903919  0.09443976  0.24088833     0.04000
N359        N  0.48727438  0.06978448  0.25585683     0.66500
H360        H  0.43865846  0.09338500  0.23587633     0.15400
H361        H  0.03937506  0.14395486  0.21685343     0.15100
N362        N  0.49053121  0.17425669  0.20143780     0.74200
O363        O  0.47932118  0.07657926  0.27408302    -0.39300
O364        O  0.97890298  0.04504075  0.25368368    -0.39200
O365        O  0.49288126  0.20087174  0.20991221    -0.39900
O366        O  0.99684234  0.16395328  0.17802786    -0.40000
C367        C  0.22860786  0.10039483  0.27055245    -0.12200
C368        C  0.20459790  0.12327624  0.26985560     0.04800
C369        C  0.21304927  0.15430991  0.26378148    -0.07500
C370        C  0.24423000  0.16098741  0.25707360    -0.08300
C371        C  0.26759787  0.13744656  0.25628872    -0.02800
C372        C  0.25968287  0.10700338  0.26363298     0.04000
N373        N  0.28152684  0.08141932  0.26206492     0.66500
H374        H  0.22269906  0.07641138  0.27491743     0.15400
H375        H  0.24984056  0.18449309  0.25155501     0.15100
N376        N  0.19030878  0.17934922  0.26399905     0.74200
O377        O  0.29057097  0.06817642  0.27846832    -0.39300
O378        O  0.28258639  0.06613925  0.24541225    -0.39200
O379        O  0.19118465  0.19900471  0.27853215    -0.39900
O380        O  0.17650445  0.18683280  0.24744652    -0.40000
C381        C  0.27782030  0.29181197  0.19429886    -0.12200
C382        C  0.24528903  0.28446401  0.19202186     0.04800
C383        C  0.23716208  0.25250300  0.18838336    -0.07500
C384        C  0.26096435  0.22912081  0.18787339    -0.08300
C385        C  0.29327775  0.23630506  0.19117031    -0.02800
C386        C  0.30156731  0.26845150  0.19399236     0.04000
N387        N  0.33390209  0.27804922  0.19706531     0.66500
H388        H  0.28505122  0.31599171  0.19696445     0.15400
H389        H  0.25368886  0.20479875  0.18588124     0.15100
N390        N  0.20471568  0.24258544  0.18703940     0.74200
O391        O  0.34985729  0.28822996  0.18189536    -0.39300
O392        O  0.34342218  0.28377796  0.21510689    -0.39200
O393        O  0.19304561  0.23701387  0.16952075    -0.39900
O394        O  0.19178242  0.23052337  0.20279325    -0.40000
C395        C  0.13021595  0.25467407  0.27167477    -0.12200
C396        C  0.13030619  0.26111509  0.25037748     0.04800
C397        C  0.11418508  0.24035422  0.23705853    -0.07500
C398        C  0.10035108  0.21305562  0.24485067    -0.08300
C399        C  0.10232916  0.20492642  0.26583088    -0.02800
C400        C  0.11646880  0.22670806  0.27951913     0.04000
N401        N  0.11753359  0.22082246  0.30119583     0.66500
H402        H  0.14154796  0.27098971  0.28219608     0.15400
H403        H  0.08852945  0.19758199  0.23400211     0.15100
N404        N  0.11074288  0.24691598  0.21552671     0.74200
O405        O  0.14242383  0.20917403  0.30898025    -0.39300
O406        O  0.09758946  0.23434657  0.31280311    -0.39200
O407        O  0.12652727  0.23100814  0.20265015    -0.39900
O408        O  0.08638875  0.26159928  0.20944473    -0.40000
C409        C  0.16769311  0.46316579  0.25652263    -0.12200
C410        C  0.16237166  0.45535909  0.23584234     0.04800
C411        C  0.14632116  0.47750363  0.22329403    -0.07500
C412        C  0.13548499  0.50600842  0.23191798    -0.08300
C413        C  0.14067590  0.01267437  0.24928931    -0.02800
C414        C  0.15558069  0.99064802  0.26230857     0.04000
N415        N  0.16390439  0.99819023  0.28310361     0.66500
H416        H  0.17948036  0.44644296  0.26693302     0.15400
H417        H  0.12219099  0.52252754  0.22236330     0.15100
N418        N  0.13954266  0.47116293  0.20223753     0.74200
O419        O  0.15170069  0.98264830  0.29775814    -0.39300
O420        O  0.18900843  0.01383461  0.28633442    -0.39200
O421        O  0.15261264  0.48822090  0.18865076    -0.39900
O422        O  0.11432470  0.45637048  0.19785946    -0.40000
C423        C  0.02052127  0.46972352  0.31756410    -0.12200
C424        C  0.48794783  0.47466466  0.31758342     0.04800
C425        C  0.47761538  0.01096557  0.31194962    -0.07500
C426        C  0.50058042  0.03509712  0.31213097    -0.08300
C427        C  0.03152313  0.02934998  0.31137009    -0.02800
C428        C  0.04307379  0.49439652  0.31678087     0.04000
N429        N  0.07595886  0.48646116  0.31436834     0.66500
H430        H  0.02906510  0.44575678  0.31601777     0.15400
H431        H  0.49241226  0.05930707  0.31177736     0.15100
N432        N  0.44483067  0.01964226  0.31040388     0.74200
O433        O  0.09244164  0.48122831  0.33024820    -0.39300
O434        O  0.08566227  0.47647125  0.29714576    -0.39200
O435        O  0.43017708  0.02852780  0.32640201    -0.39900
O436        O  0.43384321  0.02682027  0.29293938    -0.40000
C437        C  0.01322295  0.35819328  0.24166028    -0.12200
C438        C  0.50747844  0.39426427  0.24623225     0.04800
C439        C  0.53543397  0.40763067  0.25411732    -0.07500
C440        C  0.06001231  0.40095240  0.22968458    -0.08300
C441        C  0.06602046  0.36839444  0.22800999    -0.02800
C442        C  0.04163704  0.34696326  0.23314044     0.04000
N443        N  0.04663228  0.31372511  0.23233465     0.66500
H444        H  0.99562942  0.34120870  0.24698948     0.15400
H445        H  0.07865542  0.41773337  0.22577680     0.15100
N446        N  0.53462816  0.42764637  0.27172530     0.74200
O447        O  0.03206383  0.29789293  0.21889307    -0.39300
O448        O  0.05779741  0.29980339  0.24793287    -0.39200
O449        O  0.54307790  0.41640260  0.28886866    -0.39900
O450        O  0.53490497  0.45710697  0.26912444    -0.40000
C451        C  0.29244781  0.40676005  0.27828101    -0.12200
C452        C  0.31524260  0.38294072  0.27941861     0.04800
C453        C  0.30576049  0.35141253  0.27593873    -0.07500
C454        C  0.27499968  0.34494558  0.26863771    -0.08300
C455        C  0.25367108  0.36954939  0.26486421    -0.02800
C456        C  0.26200068  0.40044667  0.27090034     0.04000
N457        N  0.24037972  0.42616250  0.26892827     0.66500
H458        H  0.29895619  0.43100907  0.28144989     0.15400
H459        H  0.26871221  0.32102757  0.26443571     0.15100
N460        N  0.32721995  0.32585898  0.27922786     0.74200
O461        O  0.22861555  0.43756777  0.28522312    -0.39300
O462        O  0.24222176  0.44337631  0.25306567    -0.39200
O463        O  0.32646009  0.31155003  0.29630426    -0.39900
O464        O  0.34011873  0.31277959  0.26386946    -0.40000
C465        C  0.35347344  0.04635056  0.25245358    -0.12200
C466        C  0.35834542  0.05314308  0.23158434     0.04800
C467        C  0.37238822  0.03005932  0.21885251    -0.07500
C468        C  0.38177218  0.00092331  0.22739906    -0.08300
C469        C  0.37975393  0.49215227  0.25531379    -0.02800
C470        C  0.36173017  0.01728084  0.26085747     0.04000
N471        N  0.35696067  0.50893672  0.28898338     0.66500
H472        H  0.34435984  0.06446842  0.26260914     0.15400
H473        H  0.39405388  0.48076242  0.22416320     0.15100
N474        N  0.37981846  0.03682532  0.19780253     0.74200
O475        O  0.36777188  0.02473880  0.29615991    -0.39300
O476        O  0.33178269  0.49386664  0.29322820    -0.39200
O477        O  0.40716332  0.04724151  0.19317652    -0.39900
O478        O  0.36211565  0.02609075  0.18378891    -0.40000
C479        C  0.42312615  0.25705887  0.24663315    -0.12200
C480        C  0.39740184  0.24042658  0.25545866     0.04800
C481        C  0.38569759  0.25084228  0.27484011    -0.07500
C482        C  0.39764471  0.27904625  0.28359517    -0.08300
C483        C  0.42111989  0.29706003  0.27334814    -0.02800
C484        C  0.43493814  0.28467036  0.25525431     0.04000
N485        N  0.46055371  0.30043928  0.24487168     0.66500
H486        H  0.43413894  0.24909452  0.23241350     0.15400
H487        H  0.38705505  0.28789690  0.29770950     0.15100
N488        N  0.36135020  0.23379581  0.28558741     0.74200
O489        O  0.48890607  0.29359998  0.24959576    -0.39300
O490        O  0.45520078  0.31348811  0.22773489    -0.39200
O491        O  0.36865299  0.21799535  0.30138173    -0.39900
O492        O  0.33241928  0.24019747  0.28226851    -0.40000
C493        C  0.10382947  0.10911557  0.38762975    -0.12200
C494        C  0.13588446  0.11313823  0.39307280     0.04800
C495        C  0.15813209  0.12248613  0.37788239    -0.07500
C496        C  0.14833429  0.12549316  0.35733968    -0.08300
C497        C  0.11657428  0.11942854  0.35159825    -0.02800
C498        C  0.09393131  0.11230966  0.36716273     0.04000
N499        N  0.06151814  0.10506535  0.36230755     0.66500
H500        H  0.08656579  0.10188353  0.39923834     0.15400
H501        H  0.16609736  0.13091081  0.34563359     0.15100
N502        N  0.19121736  0.12600604  0.38262222     0.74200
O503        O  0.05334228  0.07665037  0.36015148    -0.39300
O504        O  0.04029191  0.12564444  0.36525713    -0.39200
O505        O  0.20999673  0.10334711  0.37927804    -0.39900
O506        O  0.20253633  0.15329793  0.38500468    -0.40000
C507        C  0.10607146  0.23563411  0.47954072    -0.12200
C508        C  0.12935862  0.25153438  0.49096918     0.04800
C509        C  0.16064603  0.23910721  0.49186998    -0.07500
C510        C  0.16700400  0.20951499  0.48365674    -0.08300
C511        C  0.14295651  0.19219098  0.47407936    -0.02800
C512        C  0.11279331  0.20616857  0.47062826     0.04000
N513        N  0.08946373  0.19121507  0.45772430     0.66500
H514        H  0.08245421  0.24576874  0.47805482     0.15400
H515        H  0.19043710  0.19925091  0.48590383     0.15100
N516        N  0.18616935  0.25599339  0.50140902     0.74200
O517        O  0.06014030  0.19711389  0.46008475    -0.39300
O518        O  0.09835663  0.17615632  0.44195094    -0.39200
O519        O  0.19511329  0.24815564  0.51925286    -0.39900
O520        O  0.20433161  0.27279158  0.49034863    -0.40000
C521        C  0.09144348  0.49266736  0.51094617    -0.12200
C522        C  0.12276864  0.00279157  0.50305787     0.04800
C523        C  0.14661140  0.48063643  0.51866903    -0.07500
C524        C  0.13729094  0.45000512  0.52426112    -0.08300
C525        C  0.10533352  0.44007531  0.52251075    -0.02800
C526        C  0.08193344  0.46240806  0.51708003     0.04000
N527        N  0.04894056  0.45403833  0.51569272     0.66500
H528        H  0.07356117  0.00934624  0.49402961     0.15400
H529        H  0.15546328  0.43333799  0.52901196     0.15100
N530        N  0.17670219  0.99126626  0.51628442     0.74200
O531        O  0.03043291  0.46077947  0.53043836    -0.39300
O532        O  0.03722857  0.44775965  0.49828830    -0.39200
O533        O  0.18552665  0.00062070  0.53380818    -0.39900
O534        O  0.19799712  0.48273821  0.50512674    -0.40000
C535        C  0.35664270  0.37759655  0.38525743    -0.12200
C536        C  0.37863080  0.38669404  0.40042492     0.04800
C537        C  0.41086446  0.39174847  0.39437749    -0.07500
C538        C  0.41981094  0.38919917  0.37360882    -0.08300
C539        C  0.39727576  0.38259539  0.35834704    -0.02800
C540        C  0.36551274  0.37583768  0.36441146     0.04000
N541        N  0.34176109  0.36769338  0.34959267     0.66500
H542        H  0.33192548  0.37317591  0.38940247     0.15400
H543        H  0.44423751  0.39470077  0.36925920     0.15100
N544        N  0.43472858  0.40095062  0.40883447     0.74200
O545        O  0.33595893  0.33900226  0.34622073    -0.39300
O546        O  0.32173015  0.38818539  0.34405907    -0.39200
O547        O  0.45457535  0.38071822  0.41499077    -0.39900
O548        O  0.44115367  0.42982260  0.41088262    -0.40000
C549        C  0.28142829  0.00267025  0.43728968    -0.12200
C550        C  0.27354684  0.46732065  0.44061084     0.04800
C551        C  0.24182149  0.45975921  0.43457352    -0.07500
C552        C  0.21721750  0.48249025  0.43671281    -0.08300
C553        C  0.22536209  0.01842701  0.43459855    -0.02800
C554        C  0.25779476  0.02609033  0.43830085     0.04000
N555        N  0.26711958  0.05705930  0.44430675     0.66500
H556        H  0.30558489  0.00855474  0.44185018     0.15400
H557        H  0.19298558  0.47634636  0.43254516     0.15100
N558        N  0.23446060  0.42986391  0.42534547     0.74200
O559        O  0.27102836  0.06288081  0.46318901    -0.39300
O560        O  0.27978217  0.07498210  0.43103334    -0.39200
O561        O  0.25457017  0.41670796  0.41365384    -0.39900
O562        O  0.20629593  0.41923520  0.42597313    -0.40000
C563        C  0.25804178  0.36485637  0.52690163    -0.12200
C564        C  0.25861640  0.38176356  0.50822082     0.04800
C565        C  0.22968457  0.38952478  0.49867489    -0.07500
C566        C  0.20102262  0.37920166  0.50719164    -0.08300
C567        C  0.20030090  0.35903162  0.52440659    -0.02800
C568        C  0.22905841  0.35302416  0.53496442     0.04000
N569        N  0.22982268  0.33254468  0.55243898     0.66500
H570        H  0.28031972  0.35844919  0.53423756     0.15400
H571        H  0.17920888  0.38466704  0.49898249     0.15100
N572        N  0.22908606  0.40462712  0.47899924     0.74200
O573        O  0.23558700  0.30366944  0.54980012    -0.39300
O574        O  0.23282588  0.34422940  0.57019049    -0.39200
O575        O  0.22725753  0.38776448  0.46306170    -0.39900
O576        O  0.22156713  0.43333039  0.47790310    -0.40000
C577        C  0.47497168  0.38650578  0.47124580    -0.12200
C578        C  0.45341931  0.39663179  0.48650220     0.04800
C579        C  0.46204447  0.39381354  0.50739752    -0.07500
C580        C  0.99060198  0.38489262  0.50957178    -0.08300
C581        C  0.00909939  0.36711100  0.49584913    -0.02800
C582        C  0.99977317  0.36525487  0.47497832     0.04000
N583        N  0.01749935  0.34689809  0.46050254     0.66500
H584        H  0.46848145  0.38836838  0.45513308     0.15400
H585        H  0.99780871  0.38727215  0.52555498     0.15100
N586        N  0.44159428  0.40478697  0.52358833     0.74200
O587        O  0.00912237  0.31881952  0.45715220    -0.39300
O588        O  0.03551618  0.36066468  0.44769033    -0.39200
O589        O  0.42450272  0.38522383  0.53330172    -0.39900
O590        O  0.44748352  0.43102416  0.53181802    -0.40000
C591        C  0.00815193  0.20677206  0.55641464    -0.12200
C592        C  0.47610965  0.21876140  0.56001236     0.04800
C593        C  0.47141758  0.25157018  0.56236243    -0.07500
C594        C  0.99795757  0.27109328  0.56119885    -0.08300
C595        C  0.02935922  0.26045397  0.55780524    -0.02800
C596        C  0.03436056  0.22763374  0.55599469     0.04000
N597        N  0.06576744  0.21511435  0.55329328     0.66500
H598        H  0.01248727  0.18179409  0.55507409     0.15400
H599        H  0.49293457  0.29733938  0.56370267     0.15100
N600        N  0.44019618  0.26439278  0.56515180     0.74200
O601        O  0.08455899  0.21389011  0.56842193    -0.39300
O602        O  0.07627389  0.20987226  0.53535856    -0.39200
O603        O  0.42961280  0.26807728  0.58322972    -0.39900
O604        O  0.42744546  0.27939370  0.55055223    -0.40000
C605        C  0.04642424  0.12948627  0.48252881    -0.12200
C606        C  0.04724374  0.10247089  0.47020022     0.04800
C607        C  0.01820087  0.08707862  0.46573718    -0.07500
C608        C  0.49172763  0.10228957  0.47567807    -0.08300
C609        C  0.49263166  0.12436087  0.49186549    -0.02800
C610        C  0.01829689  0.13979625  0.49186251     0.04000
N611        N  0.02034250  0.16484847  0.50638703     0.66500
H612        H  0.06850130  0.14142571  0.48641289     0.15400
H613        H  0.46906130  0.09237525  0.47090502     0.15100
N614        N  0.01777347  0.05850910  0.45420879     0.74200
O615        O  0.03408558  0.15956242  0.52329250    -0.39300
O616        O  0.01740000  0.19289933  0.50021376    -0.39200
O617        O  0.01851043  0.03254560  0.46371590    -0.39900
O618        O  0.00836665  0.05912546  0.43576239    -0.40000
C619        C  0.24660325  0.11633033  0.52137354    -0.12200
C620        C  0.23993346  0.12160567  0.50034994     0.04800
C621        C  0.26023437  0.14161584  0.48895662    -0.07500
C622        C  0.28730819  0.15407319  0.49802765    -0.08300
C623        C  0.29618236  0.14672018  0.51833204    -0.02800
C624        C  0.27468488  0.12866911  0.53047380     0.04000
N625        N  0.28079677  0.12263158  0.55177332     0.66500
H626        H  0.23051061  0.10194828  0.53056785     0.15400
H627        H  0.30251111  0.16875522  0.48845722     0.15100
N628        N  0.25368116  0.14992186  0.46800183     0.74200
O629        O  0.26853897  0.14050213  0.56513955    -0.39300
O630        O  0.29117199  0.09604132  0.55727569    -0.39200
O631        O  0.24173475  0.17654498  0.46414539    -0.39900
O632        O  0.26761328  0.13516572  0.45370658    -0.40000
C633        C  0.40471062  0.02240717  0.51948033    -0.12200
C634        C  0.38292604  0.04753692  0.51810235     0.04800
C635        C  0.35134328  0.04086182  0.51132466    -0.07500
C636        C  0.34333418  0.01074333  0.50453348    -0.08300
C637        C  0.37491030  0.49428814  0.50542235    -0.02800
C638        C  0.40564760  0.50672061  0.50166571     0.04000
N639        N  0.42799624  0.49017426  0.48900153     0.66500
H640        H  0.42890067  0.02669131  0.52460687     0.15400
H641        H  0.31972102  0.00663407  0.49827753     0.15100
N642        N  0.32698430  0.06436322  0.51053670     0.74200
O643        O  0.42741594  0.49354520  0.46966808    -0.39300
O644        O  0.44811581  0.47191995  0.49708495    -0.39200
O645        O  0.32387942  0.08034383  0.49423247    -0.39900
O646        O  0.30318769  0.06134338  0.52235990    -0.40000
C647        C  0.40195770  0.26572599  0.50089274    -0.12200
C648        C  0.38867792  0.23963043  0.49125854     0.04800
C649        C  0.36750091  0.24425273  0.47464605    -0.07500
C650        C  0.35793213  0.27493593  0.46929358    -0.08300
C651        C  0.36866584  0.30095421  0.48060750    -0.02800
C652        C  0.39196994  0.29610279  0.49601090     0.04000
N653        N  0.40522011  0.32152262  0.50743983     0.66500
H654        H  0.41855374  0.26231228  0.51347545     0.15400
H655        H  0.34050686  0.27820121  0.45716057     0.15100
N656        N  0.35385846  0.21817511  0.46399637     0.74200
O657        O  0.39162253  0.32970904  0.52397361    -0.39300
O658        O  0.43440667  0.32788104  0.50492522    -0.39200
O659        O  0.32458103  0.21222875  0.46646133    -0.39900
O660        O  0.36805748  0.20754724  0.44829542    -0.40000
C661        C  0.04755728  0.26650890  0.94663025    -0.12200
C662        C  0.04029466  0.23515296  0.94159450     0.04800
C663        C  0.50599778  0.22954085  0.93767351    -0.07500
C664        C  0.48288623  0.25365003  0.93771406    -0.08300
C665        C  0.49041596  0.28469482  0.94355437    -0.02800
C666        C  0.02421257  0.29017025  0.94669244     0.04000
N667        N  0.03378127  0.32121960  0.95248037     0.66500
H668        H  0.07162156  0.27282460  0.95115135     0.15400
H669        H  0.45856656  0.24766822  0.93360055     0.15100
N670        N  0.49630445  0.19862874  0.93169163     0.74200
O671        O  0.03586290  0.32798310  0.97136216    -0.39300
O672        O  0.04756388  0.33856740  0.93934337    -0.39200
O673        O  0.48055903  0.18192073  0.94425560    -0.39900
O674        O  0.49578633  0.19180022  0.91277057    -0.40000
C675        C  0.15490502  0.41064453  0.12014324    -0.12200
C676        C  0.15082455  0.38575584  0.10624578     0.04800
C677        C  0.14878597  0.35466356  0.11402839    -0.07500
C678        C  0.15097772  0.34926317  0.13529982    -0.08300
C679        C  0.15658840  0.37412838  0.14896455    -0.02800
C680        C  0.15856399  0.40504962  0.14121915     0.04000
N681        N  0.16331872  0.43128971  0.15448924     0.66500
H682        H  0.15689602  0.43466918  0.11453950     0.15400
H683        H  0.14974939  0.32528744  0.14108354     0.15100
N684        N  0.14536605  0.32824282  0.10064117     0.74200
O685        O  0.19145817  0.44017036  0.15824532    -0.39300
O686        O  0.14075160  0.45066987  0.15650795    -0.39200
O687        O  0.16970412  0.31212085  0.09615037    -0.39900
O688        O  0.11800629  0.31653567  0.09795933    -0.40000
C689        C  0.03477255  0.37531933  0.03501056    -0.12200
C690        C  0.04938514  0.40294099  0.02756447     0.04800
C691        C  0.03286832  0.42154750  0.01318635    -0.07500
C692        C  0.50630827  0.41245149  0.00560191    -0.08300
C693        C  0.49362405  0.38272936  0.01043695    -0.02800
C694        C  0.00614947  0.36415548  0.02616868     0.04000
N695        N  0.99237971  0.33553568  0.03368496     0.66500
H696        H  0.04671011  0.36129710  0.04661231     0.15400
H697        H  0.49477255  0.42742788  0.99429619     0.15100
N698        N  0.04479331  0.45139212  0.00656582     0.74200
O699        O  0.00143526  0.30955714  0.02630964    -0.39300
O700        O  0.97693639  0.33583396  0.05043808    -0.39200
O701        O  0.05806261  0.45342095  0.98909977    -0.39900
O702        O  0.03298175  0.47584934  0.01454161    -0.40000
C703        C  0.29569345  0.34143155  0.00345576    -0.12200
C704        C  0.30451696  0.34675059  0.98297411     0.04800
C705        C  0.28323070  0.36257269  0.96978821    -0.07500
C706        C  0.25396707  0.37412144  0.97764354    -0.08300
C707        C  0.24603993  0.37012422  0.99863576    -0.02800
C708        C  0.26674372  0.35227050  0.01126554     0.04000
N709        N  0.25907074  0.34528630  0.03230184     0.66500
H710        H  0.31241967  0.33053478  0.01394533     0.15400
H711        H  0.23830817  0.38747924  0.96767197     0.15100
N712        N  0.29232560  0.36920475  0.94897131     0.74200
O713        O  0.24660971  0.31900854  0.03662862    -0.39300
O714        O  0.27253681  0.36069148  0.04641620    -0.39200
O715        O  0.29022289  0.34775274  0.93562104    -0.39900
O716        O  0.30897483  0.39331299  0.94509339    -0.40000
C717        C  0.17145232  0.28157486  0.02132765    -0.12200
C718        C  0.14585364  0.30198717  0.02482081     0.04800
C719        C  0.11439788  0.28998952  0.02340714    -0.07500
C720        C  0.10919751  0.25909912  0.01654734    -0.08300
C721        C  0.13490147  0.24002210  0.01078530    -0.02800
C722        C  0.16632943  0.25100888  0.01414528     0.04000
N723        N  0.19347564  0.23237162  0.00885375     0.66500
H724        H  0.19577090  0.29013102  0.02248065     0.15400
H725        H  0.08493099  0.25095443  0.01416403     0.15100
N726        N  0.08742301  0.30909266  0.02821326     0.74200
O727        O  0.20904524  0.23936788  0.99278569    -0.39300
O728        O  0.20694736  0.21649302  0.02279109    -0.39200
O729        O  0.07150239  0.32094296  0.01367229    -0.39900
O730        O  0.07487844  0.30676563  0.04587946    -0.40000
C731        C  0.13883503  0.03597213  0.96828657    -0.12200
C732        C  0.11171267  0.05222556  0.97530530     0.04800
C733        C  0.09203516  0.03792557  0.99007052    -0.07500
C734        C  0.10138198  0.00981007  0.99933591    -0.08300
C735        C  0.13009704  0.49321451  0.99455664    -0.02800
C736        C  0.14786273  0.50601006  0.97793939     0.04000
N737        N  0.17704226  0.49189183  0.97127446     0.66500
H738        H  0.15356842  0.04646346  0.95649565     0.15400
H739        H  0.08657248  0.00064405  0.01161472     0.15100
N740        N  0.06310684  0.05265453  0.99656460     0.74200
O741        O  0.17773101  0.47701679  0.95446748    -0.39300
O742        O  0.20295180  0.50048344  0.97938090    -0.39200
O743        O  0.03925768  0.05259747  0.98477232    -0.39900
O744        O  0.06192431  0.06722470  0.01347289    -0.40000
C745        C  0.36715661  0.14408463  0.10728113    -0.12200
C746        C  0.36609487  0.11185821  0.10230336     0.04800
C747        C  0.36512975  0.08989141  0.11879554    -0.07500
C748        C  0.36401606  0.10052385  0.13939378    -0.08300
C749        C  0.36420731  0.13286105  0.14426066    -0.02800
C750        C  0.36633497  0.15466473  0.12778072     0.04000
N751        N  0.36582452  0.18782332  0.13139868     0.66500
H752        H  0.36783429  0.16154527  0.09503927     0.15400
H753        H  0.36248872  0.08320742  0.15169560     0.15100
N754        N  0.36363611  0.05678506  0.11504105     0.74200
O755        O  0.39175528  0.20297388  0.13131762    -0.39300
O756        O  0.33981795  0.20258735  0.12981702    -0.39200
O757        O  0.38853634  0.04044086  0.11723207    -0.39900
O758        O  0.33680024  0.04324480  0.11491298    -0.40000
C759        C  0.22230171  0.00958697  0.05083552    -0.12200
C760        C  0.22730610  0.48017464  0.06150314     0.04800
C761        C  0.25893295  0.47352943  0.06773456    -0.07500
C762        C  0.28224041  0.49735866  0.06731055    -0.08300
C763        C  0.27767402  0.02544157  0.05649059    -0.02800
C764        C  0.24653571  0.03237497  0.04952292     0.04000
N765        N  0.23989978  0.06082370  0.03860212     0.66500
H766        H  0.19914639  0.01545458  0.04448969     0.15400
H767        H  0.30655009  0.49132942  0.07144554     0.15100
N768        N  0.26830830  0.44262568  0.07393507     0.74200
O769        O  0.24099329  0.06036844  0.01918063    -0.39300
O770        O  0.22422445  0.08227509  0.04745890    -0.39200
O771        O  0.28391611  0.42574114  0.06149529    -0.39900
O772        O  0.26859464  0.43586704  0.09289168    -0.40000
C773        C  0.23894197  0.16974943  0.97610422    -0.12200
C774        C  0.21547582  0.14682550  0.97251382     0.04800
C775        C  0.22349564  0.11483803  0.97505559    -0.07500
C776        C  0.25331557  0.10642937  0.98264093    -0.08300
C777        C  0.27514656  0.12936031  0.98846212    -0.02800
C778        C  0.26877956  0.16125395  0.98415433     0.04000
N779        N  0.29133196  0.18510293  0.98950078     0.66500
H780        H  0.23334926  0.19465634  0.97384467     0.15400
H781        H  0.25885786  0.08161759  0.98503500     0.15100
N782        N  0.20101184  0.09050890  0.97122663     0.74200
O783        O  0.31478642  0.19047312  0.97772068    -0.39300
O784        O  0.29119700  0.19632467  0.00749381    -0.39200
O785        O  0.20366176  0.07525879  0.95464487    -0.39900
O786        O  0.18737650  0.07774359  0.98649645    -0.40000
C787        C  0.48138863  0.10914575  0.03082302    -0.12200
C788        C  0.46157715  0.09276954  0.01702091     0.04800
C789        C  0.47141625  0.09088372  0.99608171    -0.07500
C790        C  0.49760379  0.10782623  0.98905477    -0.08300
C791        C  0.01680635  0.12498526  0.00006425    -0.02800
C792        C  0.00885530  0.12425412  0.02133295     0.04000
N793        N  0.02795864  0.14039738  0.03609162     0.66500
H794        H  0.47444791  0.11113654  0.04688962     0.15400
H795        H  0.00383160  0.10714499  0.97014935     0.15100
N796        N  0.45566063  0.07101106  0.98154799     0.74200
O797        O  0.02044681  0.16804452  0.04128082    -0.39300
O798        O  0.04642243  0.12470200  0.04747819    -0.39200
O799        O  0.43898479  0.08336873  0.96753368    -0.39900
O800        O  0.46545082  0.04313247  0.97930650    -0.40000
C801        C  0.39148650  0.00661884  0.97312346    -0.12200
C802        C  0.36515466  0.00795637  0.98653103     0.04800
C803        C  0.34697613  0.47817181  0.99788329    -0.07500
C804        C  0.35851988  0.44951821  0.99030645    -0.08300
C805        C  0.38444862  0.44856151  0.97640588    -0.02800
C806        C  0.39692884  0.47708768  0.96864965     0.04000
N807        N  0.42445459  0.47739288  0.95556490     0.66500
H808        H  0.40548646  0.02759169  0.97029965     0.15400
H809        H  0.34847805  0.42778786  0.99631417     0.15100
N810        N  0.32272909  0.47826867  0.01349074     0.74200
O811        O  0.42984876  0.98533804  0.93441512    -0.39300
O812        O  0.45182847  0.47535706  0.96350301    -0.39200
O813        O  0.29440075  0.99682054  0.99562793    -0.39900
O814        O  0.32940884  0.46928287  0.03151675    -0.40000
C815        C  0.36283178  0.21837367  0.02664851    -0.12200
C816        C  0.38283168  0.19359709  0.02051150     0.04800
C817        C  0.41120902  0.20106334  0.00947710    -0.07500
C818        C  0.41680441  0.23192129  0.00289097    -0.08300
C819        C  0.39506440  0.25600412  0.00721680    -0.02800
C820        C  0.36858875  0.24934870  0.02009248     0.04000
N821        N  0.34507703  0.27264949  0.02454299     0.66500
H822        H  0.34126380  0.21349955  0.03540709     0.15400
H823        H  0.43769600  0.23679930  0.99343722     0.15100
N824        N  0.43430625  0.17768845  0.00419363     0.74200
O825        O  0.31902024  0.27174164  0.01488156    -0.39300
O826        O  0.34616385  0.28679492  0.04161122    -0.39200
O827        O  0.43430074  0.16622057  0.98626051    -0.39900
O828        O  0.45919520  0.17552874  0.01495928    -0.40000
C829        C  0.35734650  0.35569211  0.89077171    -0.12200
C830        C  0.38969777  0.35677275  0.89653349     0.04800
C831        C  0.41291140  0.35903001  0.88061602    -0.07500
C832        C  0.40355687  0.35956009  0.85980981    -0.08300
C833        C  0.37129283  0.35784645  0.85405562    -0.02800
C834        C  0.34800952  0.35614594  0.86992898     0.04000
N835        N  0.31490814  0.35252132  0.86526264     0.66500
H836        H  0.33901394  0.35364795  0.90255179     0.15400
H837        H  0.42192600  0.36061306  0.84799285     0.15100
N838        N  0.44626579  0.35873394  0.88508229     0.74200
O839        O  0.30345093  0.32516676  0.86345995    -0.39300
O840        O  0.29624530  0.37547867  0.86789808    -0.39200
O841        O  0.46151200  0.33323908  0.88343027    -0.39900
O842        O  0.46144289  0.38441804  0.88524062    -0.40000
C843        C  0.13108895  0.12342200  0.86113031    -0.12200
C844        C  0.15045437  0.14769371  0.85324233     0.04800
C845        C  0.16235830  0.17058203  0.86689444    -0.07500
C846        C  0.15312994  0.17021913  0.88758532    -0.08300
C847        C  0.13172390  0.14754198  0.89539976    -0.02800
C848        C  0.12166173  0.12310763  0.88206845     0.04000
N849        N  0.10067457  0.09880498  0.88911172     0.66500
H850        H  0.12182104  0.10563799  0.85079563     0.15400
H851        H  0.16234093  0.18858258  0.89750757     0.15100
N852        N  0.18373824  0.19470605  0.85993763     0.74200
O853        O  0.07099633  0.10185364  0.88655290    -0.39300
O854        O  0.11191766  0.07190381  0.89304421    -0.39200
O855        O  0.17362863  0.22254245  0.85801752    -0.39900
O856        O  0.21343143  0.18989751  0.86071484    -0.40000
C857        C  0.24185347  0.29358033  0.80274175    -0.12200
C858        C  0.27365689  0.28493801  0.80684274     0.04800
C859        C  0.27979715  0.25289719  0.81149238    -0.07500
C860        C  0.25519827  0.23049249  0.81056626    -0.08300
C861        C  0.22389730  0.23880078  0.80522607    -0.02800
C862        C  0.21714749  0.27115252  0.80204893     0.04000
N863        N  0.18540232  0.28193980  0.79830472     0.66500
H864        H  0.23601695  0.31797693  0.79956052     0.15400
H865        H  0.26114818  0.20601979  0.81338797     0.15100
N866        N  0.31116464  0.24189692  0.81590097     0.74200
O867        O  0.17683679  0.28762028  0.78004903    -0.39300
O868        O  0.16944599  0.29329497  0.81306159    -0.39200
O869        O  0.32052594  0.24169756  0.83436508    -0.39900
O870        O  0.32452829  0.22392095  0.80306353    -0.40000
C871        C  0.11450609  0.34619761  0.63927884    -0.12200
C872        C  0.10588972  0.37708166  0.64440980     0.04800
C873        C  0.09734820  0.39819614  0.62854319    -0.07500
C874        C  0.09775202  0.38829763  0.60805346    -0.08300
C875        C  0.10601024  0.35731491  0.60271680    -0.02800
C876        C  0.11479418  0.33614108  0.61867855     0.04000
N877        N  0.12337331  0.30423648  0.61446102     0.66500
H878        H  0.12100322  0.32970449  0.65135922     0.15400
H879        H  0.09045587  0.40497031  0.59628388     0.15100
N880        N  0.08563901  0.42904003  0.63304577     0.74200
O881        O  0.15251393  0.29711774  0.61283298    -0.39300
O882        O  0.10312668  0.28268034  0.61755897    -0.39200
O883        O  0.10317213  0.45261694  0.62942677    -0.39900
O884        O  0.05602502  0.43300120  0.63559263    -0.40000
C885        C  0.47201964  0.38458984  0.77804530    -0.12200
C886        C  0.45927041  0.35563117  0.77158173     0.04800
C887        C  0.47811759  0.33563676  0.75920656    -0.07500
C888        C  0.00822082  0.34510201  0.75245874    -0.08300
C889        C  0.01868206  0.37566089  0.75707175    -0.02800
C890        C  0.50231579  0.39457027  0.77135701     0.04000
N891        N  0.51465811  0.42395316  0.77843936     0.66500
H892        H  0.45777254  0.40013382  0.78761616     0.15400
H893        H  0.02259666  0.33021443  0.74250394     0.15100
N894        N  0.46611340  0.30619138  0.75194875     0.74200
O895        O  0.50491944  0.44923976  0.77040042    -0.39300
O896        O  0.02396127  0.42680859  0.79430896    -0.39200
O897        O  0.45275846  0.30509661  0.73456549    -0.39900
O898        O  0.47651703  0.28105752  0.75985190    -0.40000
C899        C  0.25767094  0.41278388  0.74231657    -0.12200
C900        C  0.27066673  0.38298329  0.73819373     0.04800
C901        C  0.25691509  0.36492952  0.72218425    -0.07500
C902        C  0.22821124  0.37516054  0.71289357    -0.08300
C903        C  0.21304109  0.40289125  0.71947823    -0.02800
C904        C  0.22937944  0.42274174  0.73321531     0.04000
N905        N  0.21673074  0.45273975  0.73885376     0.66500
H906        H  0.26881235  0.42822357  0.75348706     0.15400
H907        H  0.21661179  0.36037006  0.70161965     0.15100
N908        N  0.27050510  0.33557541  0.71603468     0.74200
O909        O  0.20311312  0.45581560  0.75612706    -0.39300
O910        O  0.22677081  0.47693641  0.72952275    -0.39200
O911        O  0.26169480  0.31050485  0.72488067    -0.39900
O912        O  0.28575068  0.33399417  0.69924170    -0.40000
C913        C  0.09222058  0.27935592  0.72773127    -0.12200
C914        C  0.11696520  0.30159452  0.72672264     0.04800
C915        C  0.14888406  0.29118856  0.72880774    -0.07500
C916        C  0.15512946  0.26006792  0.73446230    -0.08300
C917        C  0.13006941  0.23905746  0.73791923    -0.02800
C918        C  0.09857128  0.24817549  0.73325909     0.04000
N919        N  0.07278632  0.22616233  0.73446121     0.66500
H920        H  0.06765645  0.28646516  0.72533997     0.15400
H921        H  0.17951476  0.25297453  0.73758278     0.15100
N922        N  0.17529273  0.31164526  0.72500636     0.74200
O923        O  0.05365329  0.22728643  0.74952359    -0.39300
O924        O  0.06487535  0.21125452  0.71846842    -0.39200
O925        O  0.18921539  0.32434123  0.74006848    -0.39900
O926        O  0.18988840  0.30927521  0.70802794    -0.40000
C927        C  0.15022576  0.02104391  0.73712704    -0.12200
C928        C  0.13502508  0.49478873  0.74990599     0.04800
C929        C  0.12370117  0.50643706  0.76900648    -0.07500
C930        C  0.14681943  0.03149406  0.77944553    -0.08300
C931        C  0.16004188  0.05473474  0.76648411    -0.02800
C932        C  0.16145782  0.04913662  0.74505378     0.04000
N933        N  0.17165433  0.07277701  0.73064745     0.66500
H934        H  0.15129157  0.01819531  0.72052252     0.15400
H935        H  0.14384826  0.03627020  0.79575392     0.15100
N936        N  0.09957667  0.49009891  0.78041375     0.74200
O937        O  0.19576557  0.06723926  0.71950674    -0.39300
O938        O  0.15140804  0.09247422  0.72426140    -0.39200
O939        O  0.10696793  0.47601795  0.79686724    -0.39900
O940        O  0.07059620  0.49592142  0.77681164    -0.40000
C941        C  0.39111067  0.14470365  0.63886828    -0.12200
C942        C  0.39701229  0.11364140  0.64491120     0.04800
C943        C  0.39813262  0.08987899  0.62977854    -0.07500
C944        C  0.39507422  0.09785525  0.60885769    -0.08300
C945        C  0.39078419  0.12932312  0.60253404    -0.02800
C946        C  0.38762153  0.15272294  0.61800243     0.04000
N947        N  0.38245512  0.18504798  0.61291252     0.66500
H948        H  0.38994971  0.16307975  0.65043454     0.15400
H949        H  0.39740947  0.07936355  0.59745859     0.15100
N950        N  0.40457619  0.05787703  0.63523758     0.74200
O951        O  0.35458026  0.19613808  0.61416109    -0.39300
O952        O  0.40594790  0.20366955  0.61239489    -0.39200
O953        O  0.38217516  0.03798925  0.63491002    -0.39900
O954        O  0.43308997  0.04831995  0.63542631    -0.40000
C955        C  0.04614242  0.01652125  0.69114222    -0.12200
C956        C  0.03266841  0.47455362  0.68537452     0.04800
C957        C  0.50286752  0.47575129  0.68523215    -0.07500
C958        C  0.48159692  0.50133684  0.68522106    -0.08300
C959        C  0.49260235  0.03276903  0.68974627    -0.02800
C960        C  0.02370619  0.04083416  0.69188809     0.04000
N961        N  0.03493291  0.07169419  0.69683021     0.66500
H962        H  0.07064216  0.02208217  0.69507811     0.15400
H963        H  0.45638580  0.49666261  0.68308639     0.15100
N964        N  0.49045987  0.44486092  0.68175995     0.74200
O965        O  0.03864591  0.07904980  0.71549533    -0.39300
O966        O  0.04900776  0.08764541  0.68307959    -0.39200
O967        O  0.47850629  0.42960910  0.69663885    -0.39900
O968        O  0.48457357  0.43628985  0.66355261    -0.40000
C969        C  0.37664699  0.50910765  0.77301174    -0.12200
C970        C  0.39004167  0.00605511  0.75297538     0.04800
C971        C  0.41077619  0.47967977  0.74977031    -0.07500
C972        C  0.40045839  0.45189271  0.75917837    -0.08300
C973        C  0.37610953  0.45189536  0.77414976    -0.02800
C974        C  0.36547345  0.48096287  0.78200329     0.04000
N975        N  0.34119722  0.48247638  0.79749228     0.66500
H976        H  0.36157969  0.02847963  0.77673452     0.15400
H977        H  0.40972065  0.42976154  0.75337394     0.15100
N978        N  0.42218423  0.97426502  0.72827696     0.74200
O979        O  0.34915290  0.48751768  0.81593145    -0.39300
O980        O  0.31269837  0.48735498  0.79214398    -0.39200
O981        O  0.45104772  0.96747314  0.73152867    -0.39900
O982        O  0.41091506  0.97040595  0.71044386    -0.40000
C983        C  0.40424147  0.20887035  0.75150695    -0.12200
C984        C  0.40450742  0.20266884  0.73022065     0.04800
C985        C  0.39565997  0.22730460  0.71665403    -0.07500
C986        C  0.38493262  0.25636335  0.72482245    -0.08300
C987        C  0.38399938  0.26140754  0.74628873    -0.02800
C988        C  0.39576494  0.23780248  0.75945720     0.04000
N989        N  0.40122233  0.24327059  0.78094810     0.66500
H990        H  0.41119205  0.19110796  0.76257213     0.15400
H991        H  0.37711297  0.27480885  0.71443197     0.15100
N992        N  0.39716252  0.22338744  0.69482634     0.74200
O993        O  0.38666680  0.22667791  0.79412212    -0.39300
O994        O  0.42637468  0.25735482  0.78629434    -0.39200
O995        O  0.37167221  0.21921175  0.68491239    -0.39900
O996        O  0.42200390  0.23201275  0.68527038    -0.40000
C997        C  0.02092183  0.09645123  0.76227166    -0.12200
C998        C  0.49611873  0.12180299  0.76058161     0.04800
C999        C  0.00046803  0.14793614  0.77126103    -0.07500
C1000       C  0.03027963  0.15625984  0.77919666    -0.08300
C1001       C  0.05615910  0.13583575  0.77732086    -0.02800
C1002       C  0.05099640  0.10507433  0.76969956     0.04000
N1003       N  0.07635483  0.08280749  0.76831389     0.66500
H1004       H  0.01778072  0.07350531  0.75525059     0.15400
H1005       H  0.03391440  0.17994853  0.78497559     0.15100
N1006       N  0.47799700  0.17702992  0.76480532     0.74200
O1007       O  0.08088034  0.06432497  0.78327599    -0.39300
O1008       O  0.08704391  0.07547916  0.75074865    -0.39200
O1009       O  0.46370146  0.18757701  0.78049728    -0.39900
O1010       O  0.47945130  0.19387204  0.74876143    -0.40000
C1011       C  0.30360507  0.14333578  0.72917407    -0.12200
C1012       C  0.30959843  0.11099959  0.72605012     0.04800
C1013       C  0.28494414  0.08932845  0.73014402    -0.07500
C1014       C  0.25606585  0.09995896  0.73887086    -0.08300
C1015       C  0.25087482  0.13211859  0.74303130    -0.02800
C1016       C  0.27487630  0.15392826  0.73780530     0.04000
N1017       N  0.27118827  0.18670975  0.74212841     0.66500
H1018       H  0.32230414  0.16048545  0.72615672     0.15400
H1019       H  0.23843371  0.08277088  0.74369820     0.15100
N1020       N  0.28983820  0.05637504  0.72708994     0.74200
O1021       O  0.28192514  0.19759841  0.75880559    -0.39300
O1022       O  0.26470883  0.20540778  0.72758823    -0.39200
O1023       O  0.30259567  0.04007814  0.74110444    -0.39900
O1024       O  0.28669353  0.04490780  0.70928517    -0.40000
O1025       O  0.43916032  0.55287608  0.68858076    -0.85300
O1026       O  0.41052714  0.53609520  0.72471092    -0.82400
C1027       C  0.40158619  0.53780291  0.74322038     0.98100
O1028       O  0.39407535  0.56414874  0.75067750    -0.82400
O1029       O  0.45183313  0.59644221  0.75249631    -0.85100
C1030       C  0.47434494  0.61483667  0.74769842     1.02700
O1031       O  0.47376288  0.63007512  0.73083794    -0.77800
O1032       O  0.47683353  0.58278566  0.70179370    -0.78000
C1033       C  0.46829264  0.55752375  0.69309097     1.02600
O1034       O  0.38665178  0.59545966  0.68003386    -0.85300
O1035       O  0.35602427  0.57704289  0.71590328    -0.82400
C1036       C  0.34668559  0.60182753  0.72510287     0.98200
O1037       O  0.36621352  0.61982647  0.73372684    -0.82400
O1038       O  0.42001841  0.65188623  0.74000910    -0.85000
C1039       C  0.41760880  0.67041194  0.72488709     1.02600
O1040       O  0.42393531  0.66060243  0.70690623    -0.77800
O1041       O  0.43426133  0.61566484  0.67546952    -0.78000
C1042       C  0.40699475  0.60873872  0.66859679     1.02600
Cr1043     Cr  0.39948559  0.56771352  0.70329769     1.93700
Cr1044     Cr  0.40883684  0.60709727  0.74225444     1.93200
Cr1045     Cr  0.44984390  0.62076717  0.70451485     1.39100
O1046       O  0.41936477  0.59827770  0.71655970    -1.23100
O1047       O  0.08932070  0.96751067  0.69573181    -0.85300
O1048       O  0.14056632  0.96348411  0.72153720    -0.82400
C1049       C  0.12787895  0.96785599  0.73909137     0.98100
O1050       O  0.10996065  0.94681462  0.74687803    -0.82400
O1051       O  0.07381216  0.88982330  0.74843049    -0.85100
C1052       C  0.04621095  0.89638729  0.74194164     1.02700
O1053       O  0.04254278  0.90607346  0.72381508    -0.77800
O1054       O  0.05466485  0.93140008  0.68620720    -0.78000
C1055       C  0.06178366  0.96010233  0.68925852     1.02600
O1056       O  0.11652191  0.92243464  0.66911640    -0.85300
O1057       O  0.16573535  0.91088918  0.69801062    -0.82400
C1058       C  0.17738037  0.90410712  0.71549087     0.98200
O1059       O  0.16238880  0.91196020  0.73154936    -0.82400
O1060       O  0.12649529  0.85879418  0.72901440    -0.85000
C1061       C  0.10608358  0.84004681  0.72190118     1.02600
O1062       O  0.08028424  0.85024903  0.71407278    -0.77800
O1063       O  0.09472203  0.87726493  0.67678569    -0.78000
C1064       C  0.10696241  0.89563178  0.66370639     1.02600
Cr1065     Cr  0.12666321  0.93898560  0.69708858     1.93700
Cr1066     Cr  0.11686262  0.90257487  0.73713752     1.93200
Cr1067     Cr  0.07066792  0.89261271  0.70100980     1.39100
O1068       O  0.10427301  0.91153593  0.71172436    -1.23100
O1069       O  0.17357856  0.71566165  0.79474429    -0.85300
O1070       O  0.11817364  0.70745208  0.76866304    -0.82400
C1071       C  0.13388476  0.71655263  0.75346846     0.98100
O1072       O  0.15763742  0.70040616  0.74822967    -0.82400
O1073       O  0.20570230  0.65749441  0.74838372    -0.85100
C1074       C  0.22696534  0.64212580  0.75762657     1.02700
O1075       O  0.22266024  0.63253768  0.77583223    -0.77800
O1076       O  0.20753355  0.67826833  0.80609529    -0.78000
C1077       C  0.20066433  0.70734579  0.80215536     1.02600
O1078       O  0.14418159  0.67890002  0.82267731    -0.85300
O1079       O  0.10134547  0.65521691  0.79105748    -0.82400
C1080       C  0.09440909  0.64365857  0.77340260     0.98200
O1081       O  0.11196300  0.64864222  0.75753497    -0.82400
O1082       O  0.16177008  0.60720950  0.75552203    -0.85000
C1083       C  0.16338976  0.58713154  0.76995359     1.02600
O1084       O  0.17029560  0.59508993  0.78816285    -0.77800
O1085       O  0.15950636  0.63101467  0.82120601    -0.78000
C1086       C  0.14932429  0.65352840  0.83157323     1.02600
Cr1087     Cr  0.13652480  0.68658676  0.79319585     1.93700
Cr1088     Cr  0.15930982  0.65403516  0.75444988     1.93200
Cr1089     Cr  0.18814398  0.63653902  0.79677458     1.39100
O1090       O  0.16191270  0.65870162  0.78137292    -1.23100
O1091       O  0.32823948  0.79919751  0.80824103    -0.85300
O1092       O  0.35821789  0.78635027  0.77250298    -0.82400
C1093       C  0.37118368  0.78862199  0.75513414     0.98100
O1094       O  0.37535118  0.81522524  0.74695303    -0.82400
O1095       O  0.31564062  0.84485734  0.74489365    -0.85100
C1096       C  0.29163378  0.86064986  0.75047177     1.02700
O1097       O  0.29194168  0.87619177  0.76720397    -0.77800
O1098       O  0.29000977  0.82919762  0.79579507    -0.78000
C1099       C  0.29908321  0.80340997  0.80360960     1.02600
O1100       O  0.37938995  0.84385369  0.81765596    -0.85300
O1101       O  0.41107273  0.82760781  0.78194082    -0.82400
C1102       C  0.42032380  0.85209693  0.77228925     0.98200
O1103       O  0.40062057  0.87074860  0.76427758    -0.82400
O1104       O  0.34432435  0.90169765  0.75825308    -0.85000
C1105       C  0.34937874  0.91868182  0.77381416     1.02600
O1106       O  0.34124725  0.90853530  0.79148913    -0.77800
O1107       O  0.33142247  0.86235272  0.82278965    -0.78000
C1108       C  0.35876491  0.85533979  0.82958429     1.02600
Cr1109     Cr  0.36774559  0.81666162  0.79421698     1.93700
Cr1110     Cr  0.35799734  0.85720804  0.75549839     1.93200
Cr1111     Cr  0.31603370  0.86794470  0.79350709     1.39100
O1112       O  0.34728751  0.84699156  0.78117614    -1.23100
O1113       O  0.32828829  0.53903848  0.05102312    -0.85300
O1114       O  0.37411899  0.53382220  0.02180406    -0.82400
C1115       C  0.35915224  0.53436607  0.00475186     0.98100
O1116       O  0.34570813  0.55925619  0.99849434    -0.82400
O1117       O  0.32552704  0.62265047  0.99802976    -0.85100
C1118       C  0.29747742  0.62036115  0.00456105     1.02700
O1119       O  0.29198970  0.61067723  0.02249067    -0.77800
O1120       O  0.29836145  0.58022301  0.05877333    -0.78000
C1121       C  0.30195669  0.55056515  0.05686284     1.02600
O1122       O  0.36601162  0.57856580  0.07599653    -0.85300
O1123       O  0.41313122  0.58121239  0.04391640    -0.82400
C1124       C  0.42424288  0.58395411  0.02577229     0.98200
O1125       O  0.40579717  0.57979534  0.01092303    -0.82400
O1126       O  0.38334719  0.63968478  0.01608417    -0.85000
C1127       C  0.36739799  0.66214966  0.02344420     1.02600
O1128       O  0.34118501  0.65685565  0.03308004    -0.77800
O1129       O  0.34752449  0.62590955  0.07046186    -0.78000
C1130       C  0.35847739  0.60551015  0.08263973     1.02600
Cr1131     Cr  0.36950022  0.56078003  0.04726477     1.93700
Cr1132     Cr  0.36383441  0.59973041  0.00799533     1.93200
Cr1133     Cr  0.32215991  0.61663510  0.04539041     1.39100
O1134       O  0.35136187  0.59237797  0.03379421    -1.23100
O1135       O  0.17521842  0.96321480  0.04973937    -0.85300
O1136       O  0.12523028  0.96235467  0.02309598    -0.82400
C1137       C  0.13837152  0.96542861  0.00558321     0.98100
O1138       O  0.15580588  0.94343044  0.99853503    -0.82400
O1139       O  0.18900812  0.88377150  0.99797142    -0.85100
C1140       C  0.21650840  0.88622626  0.00578440     1.02700
O1141       O  0.21953135  0.89774519  0.02344346    -0.77800
O1142       O  0.20751989  0.92571573  0.06014695    -0.78000
C1143       C  0.20223457  0.95467484  0.05637364     1.02600
O1144       O  0.14360760  0.91933863  0.07612457    -0.85300
O1145       O  0.09518581  0.91239467  0.04594639    -0.82400
C1146       C  0.08273868  0.90870410  0.02831317     0.98200
O1147       O  0.09991706  0.91052719  0.01225425    -0.82400
O1148       O  0.13348517  0.85614350  0.01628098    -0.85000
C1149       C  0.15180593  0.83662215  0.02486333     1.02600
O1150       O  0.17755743  0.84556005  0.03331675    -0.77800
O1151       O  0.16367946  0.87315880  0.06967413    -0.78000
C1152       C  0.15165726  0.89222254  0.08216894     1.02600
Cr1153     Cr  0.13630152  0.93687797  0.04783516     1.93700
Cr1154     Cr  0.14592709  0.89936657  0.00821707     1.93200
Cr1155     Cr  0.18945268  0.88724805  0.04574866     1.39100
O1156       O  0.15748158  0.90779006  0.03396296    -1.23100
O1157       O  0.43368477  0.79957637  0.93855708    -0.85300
O1158       O  0.40412082  0.78471431  0.97447226    -0.82400
C1159       C  0.39485970  0.78685983  0.99287467     0.98100
O1160       O  0.38825383  0.81348718  0.00040763    -0.82400
O1161       O  0.44403945  0.85148522  0.00015665    -0.85100
C1162       C  0.46466902  0.87092991  0.99370410     1.02700
O1163       O  0.46132677  0.88359794  0.97612543    -0.77800
O1164       O  0.46886890  0.83384553  0.94989650    -0.78000
C1165       C  0.46247305  0.80674876  0.94302353     1.02600
O1166       O  0.37766283  0.83876986  0.92812666    -0.85300
O1167       O  0.34790324  0.82157982  0.96423951    -0.82400
C1168       C  0.33705296  0.84527882  0.97398232     0.98200
O1169       O  0.35536040  0.86503271  0.98205425    -0.82400
O1170       O  0.40565848  0.90326823  0.98528712    -0.85000
C1171       C  0.40107991  0.91856574  0.96878061     1.02600
O1172       O  0.40965366  0.90715708  0.95158390    -0.77800
O1173       O  0.42357814  0.86072761  0.92188001    -0.78000
C1174       C  0.39631175  0.85236976  0.91572083     1.02600
Cr1175     Cr  0.39217293  0.81377142  0.95216348     1.93700
Cr1176     Cr  0.39946891  0.85712076  0.98995169     1.93200
Cr1177     Cr  0.43859361  0.86963546  0.95079465     1.39100
O1178       O  0.41001477  0.84651417  0.96430812    -1.23100
O1179       O  0.08723430  0.71655939  0.95613573    -0.85300
O1180       O  0.14114335  0.71108706  0.98125994    -0.82400
C1181       C  0.12729927  0.71209350  0.99844619     0.98100
O1182       O  0.10863601  0.69015180  0.00372671    -0.82400
O1183       O  0.07191669  0.63519791  0.00173452    -0.85100
C1184       C  0.04510343  0.63799436  0.99311196     1.02700
O1185       O  0.04311579  0.64694197  0.97462089    -0.77800
O1186       O  0.05796361  0.68082525  0.94046958    -0.78000
C1187       C  0.06163934  0.70887157  0.94696994     1.02600
O1188       O  0.11819271  0.67944854  0.92644289    -0.85300
O1189       O  0.16714115  0.66573721  0.95461836    -0.82400
C1190       C  0.17922957  0.65587491  0.97133705     0.98200
O1191       O  0.16285569  0.65477849  0.98784067    -0.82400
O1192       O  0.12519542  0.60343144  0.98356873    -0.85000
C1193       C  0.10756862  0.58543293  0.97320818     1.02600
O1194       O  0.08478360  0.59616097  0.96252666    -0.77800
O1195       O  0.10341460  0.63065376  0.92840698    -0.78000
C1196       C  0.11565622  0.65284600  0.91817709     1.02600
Cr1197     Cr  0.12673331  0.69065921  0.95542838     1.93700
Cr1198     Cr  0.11609083  0.64708679  0.99222560     1.93200
Cr1199     Cr  0.07498000  0.64008615  0.95259923     1.39100
O1200       O  0.10579743  0.65882209  0.96681682    -1.23100
O1201       O  0.41619193  0.71478556  0.55181446    -0.85300
O1202       O  0.36660149  0.71399893  0.52417856    -0.82400
C1203       C  0.37983817  0.71708390  0.50668972     0.98100
O1204       O  0.40000233  0.69691688  0.50058591    -0.82400
O1205       O  0.43505955  0.63967087  0.49904467    -0.85100
C1206       C  0.46206699  0.64378468  0.50717717     1.02700
O1207       O  0.46365460  0.65199928  0.52572021    -0.77800
O1208       O  0.44735535  0.67668060  0.56269870    -0.78000
C1209       C  0.44285457  0.70570873  0.55879368     1.02600
O1210       O  0.38422412  0.66909606  0.57717561    -0.85300
O1211       O  0.33727625  0.66174363  0.54554400    -0.82400
C1212       C  0.32709266  0.65739307  0.52732873     0.98200
O1213       O  0.34561670  0.66198325  0.51223378    -0.82400
O1214       O  0.37949654  0.60856708  0.51478471    -0.85000
C1215       C  0.39789220  0.58873112  0.52284217     1.02600
O1216       O  0.42270127  0.59747271  0.53248679    -0.77800
O1217       O  0.40426341  0.62346563  0.56925654    -0.78000
C1218       C  0.39238426  0.64163019  0.58250163     1.02600
Cr1219     Cr  0.37768448  0.68765732  0.54881269     1.93700
Cr1220     Cr  0.39118690  0.65247914  0.50866356     1.93200
Cr1221     Cr  0.43198341  0.63896438  0.54669070     1.39100
O1222       O  0.40052140  0.65966080  0.53476649    -1.23100
O1223       O  0.32754005  0.95137661  0.43525822    -0.85300
O1224       O  0.35026397  0.96213188  0.47367983    -0.82400
C1225       C  0.35872141  0.95841636  0.49204574     0.98100
O1226       O  0.36284784  0.93106454  0.49913120    -0.82400
O1227       O  0.30273153  0.90292266  0.49559036    -0.85100
C1228       C  0.27989279  0.88739005  0.48820278     1.02700
O1229       O  0.28283827  0.87301085  0.47104834    -0.77800
O1230       O  0.28698652  0.91990139  0.44251121    -0.78000
C1231       C  0.29748219  0.94611565  0.43625556     1.02600
O1232       O  0.38123947  0.90722003  0.42900219    -0.85300
O1233       O  0.40474723  0.91967975  0.46761552    -0.82400
C1234       C  0.41054965  0.89394414  0.47714246     0.98200
O1235       O  0.38842572  0.87543250  0.48171027    -0.82400
O1236       O  0.33252941  0.84566542  0.48347227    -0.85000
C1237       C  0.33975912  0.82959990  0.46781225     1.02600
O1238       O  0.33742882  0.84169263  0.45013985    -0.77800
O1239       O  0.33528710  0.88768821  0.41984456    -0.78000
C1240       C  0.36405613  0.89433462  0.41564149     1.02600
Cr1241     Cr  0.36426654  0.93284470  0.45199941     1.93700
Cr1242     Cr  0.34606098  0.88996976  0.48807972     1.93200
Cr1243     Cr  0.31271933  0.88173232  0.44694466     1.39100
O1244       O  0.34077796  0.90205943  0.46222773    -1.23100
O1245       O  0.16935641  0.52789253  0.45202565    -0.85300
O1246       O  0.11956481  0.53026624  0.47996993    -0.82400
C1247       C  0.13259393  0.52892649  0.49755437     0.98100
O1248       O  0.14992849  0.55147067  0.50387323    -0.82400
O1249       O  0.18151785  0.61157865  0.50304989    -0.85100
C1250       C  0.20901160  0.60757021  0.49565276     1.02700
O1251       O  0.21226249  0.59432540  0.47855722    -0.77800
O1252       O  0.20224374  0.56568532  0.44227809    -0.78000
C1253       C  0.19686707  0.53678160  0.44594930     1.02600
O1254       O  0.13556841  0.57204149  0.42599899    -0.85300
O1255       O  0.08885643  0.58043541  0.45649291    -0.82400
C1256       C  0.07793382  0.58777103  0.47413548     0.98200
O1257       O  0.09444235  0.58174892  0.48975629    -0.82400
O1258       O  0.12693025  0.63734399  0.48369869    -0.85000
C1259       C  0.14602158  0.65645588  0.47520717     1.02600
O1260       O  0.17183270  0.64693691  0.46698405    -0.77800
O1261       O  0.15979766  0.61712721  0.43075893    -0.78000
C1262       C  0.14401231  0.59885645  0.41954160     1.02600
Cr1263     Cr  0.12988817  0.55483519  0.45447270     1.93700
Cr1264     Cr  0.13949874  0.59460700  0.49312807     1.93200
Cr1265     Cr  0.18386997  0.60440490  0.45556509     1.39100
O1266       O  0.15137452  0.58459436  0.46756555    -1.23100
O1267       O  0.07878079  0.78195052  0.54809185    -0.85300
O1268       O  0.13030588  0.78447495  0.52127439    -0.82400
C1269       C  0.11685003  0.77987633  0.50415538     0.98100
O1270       O  0.09681921  0.79973260  0.49735014    -0.82400
O1271       O  0.05951920  0.85668468  0.49501237    -0.85100
C1272       C  0.03299078  0.85292557  0.50402582     1.02700
O1273       O  0.03245495  0.84367847  0.52242197    -0.77800
O1274       O  0.04810464  0.82033598  0.55953392    -0.78000
C1275       C  0.05237172  0.79142243  0.55545248     1.02600
O1276       O  0.10839972  0.82761841  0.57348897    -0.85300
O1277       O  0.15552433  0.83807297  0.54301452    -0.82400
C1278       C  0.16547154  0.84515989  0.52508034     0.98200
O1279       O  0.14964869  0.83676478  0.50950462    -0.82400
O1280       O  0.11330203  0.88946235  0.51060133    -0.85000
C1281       C  0.09470078  0.90894442  0.51895942     1.02600
O1282       O  0.07034988  0.89973852  0.52896908    -0.77800
O1283       O  0.08986732  0.87398438  0.56580540    -0.78000
C1284       C  0.10176039  0.85533219  0.57878247     1.02600
Cr1285     Cr  0.11679849  0.81007069  0.54549037     1.93700
Cr1286     Cr  0.10374878  0.84488266  0.50496672     1.93200
Cr1287     Cr  0.06256658  0.85803968  0.54328049     1.39100
O1288       O  0.09408738  0.83777146  0.53121053    -1.23100
O1289       O  0.43470956  0.95528970  0.31123362    -0.85300
O1290       O  0.40361150  0.96836030  0.27566422    -0.82400
C1291       C  0.39105589  0.96602099  0.25822762     0.98100
O1292       O  0.38855415  0.93924661  0.24986429    -0.82400
O1293       O  0.45069726  0.91293223  0.24666687    -0.85100
C1294       C  0.47564022  0.89835718  0.25208010     1.02700
O1295       O  0.47643925  0.88297453  0.26891811    -0.77800
O1296       O  0.47500969  0.92767982  0.29911931    -0.78000
C1297       C  0.46436818  0.95259275  0.30728547     1.02600
O1298       O  0.38583263  0.90685152  0.31929399    -0.85300
O1299       O  0.35477447  0.92207371  0.28480772    -0.82400
C1300       C  0.34742168  0.89594745  0.27658616     0.98200
O1301       O  0.36799503  0.88006751  0.26700064    -0.82400
O1302       O  0.42549941  0.85335190  0.25872788    -0.85000
C1303       C  0.42514734  0.83481047  0.27400249     1.02600
O1304       O  0.42961604  0.84565423  0.29191996    -0.77800
O1305       O  0.43399782  0.88929208  0.32441882    -0.78000
C1306       C  0.40580071  0.89392197  0.33080796     1.02600
Cr1307     Cr  0.39666101  0.93592634  0.29676766     1.93700
Cr1308     Cr  0.40903939  0.89753998  0.25750684     1.93200
Cr1309     Cr  0.45128682  0.88768447  0.29527778     1.39100
O1310       O  0.41924778  0.90749883  0.28321018    -1.23100
O1311       O  0.18860997  0.80116774  0.19137342    -0.85300
O1312       O  0.14923149  0.78684362  0.22339483    -0.82400
C1313       C  0.14097979  0.78785609  0.24200476     0.98100
O1314       O  0.14302761  0.81325355  0.25185700    -0.82400
O1315       O  0.20308593  0.84405180  0.25389393    -0.85100
C1316       C  0.22515203  0.86332046  0.24958867     1.02700
O1317       O  0.22436865  0.87888257  0.23301590    -0.77800
O1318       O  0.22697066  0.83200889  0.20337373    -0.78000
C1319       C  0.21794208  0.80579643  0.19588860     1.02600
O1320       O  0.14125637  0.84932745  0.17883557    -0.85300
O1321       O  0.10425544  0.83670545  0.21213826    -0.82400
C1322       C  0.09715825  0.85912034  0.22434904     0.98200
O1323       O  0.11733905  0.86995804  0.23674172    -0.82400
O1324       O  0.17132972  0.90117573  0.24281484    -0.85000
C1325       C  0.16950401  0.92061571  0.22806028     1.02600
O1326       O  0.17643617  0.91166919  0.20992073    -0.77800
O1327       O  0.18874016  0.86980814  0.17715544    -0.78000
C1328       C  0.16242056  0.86379934  0.16893880     1.02600
Cr1329     Cr  0.14784613  0.82097882  0.20271335     1.93700
Cr1330     Cr  0.15977306  0.85592082  0.24405267     1.93200
Cr1331     Cr  0.20129648  0.87116724  0.20667921     1.39100
O1332       O  0.16946554  0.84881090  0.21773394    -1.23100
O1333       O  0.08449175  0.55197995  0.31554178    -0.85300
O1334       O  0.11645705  0.53927893  0.28048351    -0.82400
C1335       C  0.12715903  0.54116390  0.26246341     0.94900
O1336       O  0.12831798  0.56736336  0.25336865    -0.82400
O1337       O  0.06549150  0.59034989  0.25141701    -0.85100
C1338       C  0.04068361  0.60566508  0.25609681     1.02700
O1339       O  0.03965603  0.62197925  0.27247745    -0.77800
O1340       O  0.04287065  0.57763028  0.30330261    -0.78000
C1341       C  0.05467154  0.55336555  0.31181923     1.02600
O1342       O  0.13051408  0.60312278  0.32300121    -0.85300
O1343       O  0.16348581  0.58847744  0.28815834    -0.82400
C1344       C  0.16978824  0.61318574  0.27767591     0.98200
O1345       O  0.14799011  0.62727002  0.26806775    -0.82400
O1346       O  0.08884483  0.65106971  0.26152787    -0.85000
C1347       C  0.09139391  0.67067062  0.27599091     1.02600
O1348       O  0.08628372  0.66133999  0.29435378    -0.77800
O1349       O  0.08126983  0.61757803  0.32786583    -0.78000
C1350       C  0.10905454  0.61330611  0.33475128     1.02600
Cr1351     Cr  0.12190342  0.57284472  0.30079296     1.93700
Cr1352     Cr  0.10687079  0.60803897  0.26064295     1.93200
Cr1353     Cr  0.06507659  0.61857109  0.29868262     1.39100
O1354       O  0.09793037  0.59940434  0.28681140    -1.23100
O1355       O  0.34225839  0.71217515  0.20376967    -0.85300
O1356       O  0.39623399  0.70573381  0.22786006    -0.82400
C1357       C  0.38423684  0.71260651  0.24515131     0.98100
O1358       O  0.36391346  0.69411477  0.25301985    -0.82400
O1359       O  0.32317171  0.64118234  0.25728728    -0.85100
C1360       C  0.29577647  0.64230550  0.24929322     1.02700
O1361       O  0.29238482  0.64577887  0.23017327    -0.77800
O1362       O  0.30651365  0.67666222  0.19441406    -0.78000
C1363       C  0.31444950  0.70548245  0.19749698     1.02600
O1364       O  0.36664020  0.66737954  0.17578360    -0.85300
O1365       O  0.41535774  0.65242537  0.20453224    -0.82400
C1366       C  0.42753912  0.64457401  0.22167785     0.98200
O1367       O  0.41358110  0.65121201  0.23854307    -0.82400
O1368       O  0.37241881  0.60314379  0.24109872    -0.85000
C1369       C  0.35486563  0.58366668  0.23200650     1.02600
O1370       O  0.33288242  0.59255981  0.21979918    -0.77800
O1371       O  0.34714335  0.62156784  0.18296599    -0.78000
C1372       C  0.35859775  0.64036163  0.16987520     1.02600
Cr1373     Cr  0.37831673  0.68208433  0.20417431     1.93700
Cr1374     Cr  0.36697427  0.64837066  0.24528518     1.93200
Cr1375     Cr  0.32252585  0.63572800  0.20767848     1.39100
O1376       O  0.35538683  0.65515445  0.21919758    -1.23100
C1377       C  0.45830043  0.60040605  0.23567181    -0.12200
C1378       C  0.45808204  0.62750691  0.22321992     0.04800
C1379       C  0.48736620  0.64126799  0.21734627    -0.07500
C1380       C  0.01562176  0.63769855  0.22925094    -0.08300
C1381       C  0.01495913  0.60996305  0.24106026    -0.02800
C1382       C  0.48658682  0.58943311  0.24448218     0.04000
N1383       N  0.48489540  0.56471489  0.25940789     0.66500
H1384       H  0.43591809  0.58951440  0.24027443     0.15400
H1385       H  0.03699798  0.65217489  0.22900571     0.15100
N1386       N  0.48831451  0.66903450  0.20489292     0.74200
O1387       O  0.47746451  0.57148547  0.27772562    -0.39300
O1388       O  0.98647679  0.53701658  0.24441929    -0.39200
O1389       O  0.49124175  0.69552977  0.21345160    -0.39900
O1390       O  0.99811526  0.68251357  0.19214175    -0.40000
C1391       C  0.22851469  0.60334184  0.27905237    -0.12200
C1392       C  0.20337649  0.62428505  0.27502910     0.04800
C1393       C  0.21094455  0.65416749  0.26641992    -0.07500
C1394       C  0.24212149  0.66064246  0.25972135    -0.08300
C1395       C  0.26649981  0.63842506  0.26193412    -0.02800
C1396       C  0.25985302  0.61017885  0.27269018     0.04000
N1397       N  0.28373314  0.58662775  0.27536070     0.66500
H1398       H  0.22360938  0.58055942  0.28594934     0.15400
H1399       H  0.24699470  0.68270746  0.25185191     0.15100
N1400       N  0.18747326  0.67830912  0.26419162     0.74200
O1401       O  0.29781538  0.58472122  0.29247578    -0.39300
O1402       O  0.28367331  0.56305775  0.26355504    -0.39200
O1403       O  0.18845436  0.70156881  0.27622921    -0.39900
O1404       O  0.17312918  0.68116042  0.24722519    -0.40000
C1405       C  0.27499446  0.78736955  0.19586250    -0.12200
C1406       C  0.24250271  0.78002593  0.19313680     0.04800
C1407       C  0.23460595  0.74795476  0.18964688    -0.07500
C1408       C  0.25838002  0.72442036  0.19037690    -0.08300
C1409       C  0.29060052  0.73168219  0.19422068    -0.02800
C1410       C  0.29878425  0.76399959  0.19624970     0.04000
N1411       N  0.33116713  0.77385354  0.19875493     0.66500
H1412       H  0.28221453  0.81164560  0.19809816     0.15400
H1413       H  0.25122049  0.70005885  0.18848916     0.15100
N1414       N  0.20243360  0.73837119  0.18615705     0.74200
O1415       O  0.34711953  0.78198759  0.18306250    -0.39300
O1416       O  0.34087835  0.78164642  0.21641184    -0.39200
O1417       O  0.19348253  0.73312528  0.16793359    -0.39900
O1418       O  0.18652855  0.72700010  0.20097316    -0.40000
C1419       C  0.12937620  0.75332115  0.27316291    -0.12200
C1420       C  0.12690669  0.75913675  0.25179151     0.04800
C1421       C  0.10908520  0.73781761  0.23978551    -0.07500
C1422       C  0.09583747  0.71102586  0.24877766    -0.08300
C1423       C  0.10021730  0.70353757  0.26971660    -0.02800
C1424       C  0.11638551  0.72566593  0.28219234     0.04000
N1425       N  0.12036569  0.72038988  0.30378427     0.66500
H1426       H  0.14215473  0.76985211  0.28280612     0.15400
H1427       H  0.08257524  0.69529761  0.23881671     0.15100
N1428       N  0.10334689  0.74322351  0.21835018     0.74200
O1429       O  0.14573020  0.70784699  0.31022934    -0.39300
O1430       O  0.10267720  0.73495011  0.31633320    -0.39200
O1431       O  0.11876762  0.72757758  0.20514443    -0.39900
O1432       O  0.07788916  0.75670933  0.21300541    -0.40000
C1433       C  0.16419780  0.96141774  0.25468592    -0.12200
C1434       C  0.16086901  0.95355455  0.23378948     0.04800
C1435       C  0.14800705  0.97652289  0.22037093    -0.07500
C1436       C  0.13774157  0.00575742  0.22824935    -0.08300
C1437       C  0.14039818  0.51270323  0.25283892    -0.02800
C1438       C  0.15779677  0.49134454  0.26495378     0.04000
N1439       N  0.16654399  0.49836767  0.28572956     0.66500
H1440       H  0.17379518  0.94459478  0.26557847     0.15400
H1441       H  0.12663951  0.02270963  0.21798700     0.15100
N1442       N  0.14403116  0.97050425  0.19899742     0.74200
O1443       O  0.15297734  0.48390330  0.30036301    -0.39300
O1444       O  0.19267467  0.51223553  0.28903460    -0.39200
O1445       O  0.16055901  0.98627540  0.18633873    -0.39900
O1446       O  0.11835397  0.95797014  0.19304427    -0.40000
C1447       C  0.01885641  0.97314262  0.31396318    -0.12200
C1448       C  0.48721108  0.97904414  0.31156966     0.04800
C1449       C  0.47802159  0.50647679  0.31679257    -0.07500
C1450       C  0.50063678  0.53096254  0.31605728    -0.08300
C1451       C  0.03292432  0.52619637  0.31702335    -0.02800
C1452       C  0.04151271  0.99768288  0.31342043     0.04000
N1453       N  0.07451724  0.98956010  0.31324304     0.66500
H1454       H  0.02730261  0.94905709  0.31488041     0.15400
H1455       H  0.49207141  0.55496414  0.31494817     0.15100
N1456       N  0.44516031  0.51459956  0.31503159     0.74200
O1457       O  0.08879102  0.98584314  0.33016265    -0.39300
O1458       O  0.08643836  0.97806877  0.29703716    -0.39200
O1459       O  0.43003944  0.52279590  0.33100796    -0.39900
O1460       O  0.43462150  0.52241725  0.29757121    -0.40000
C1461       C  0.00687973  0.86997604  0.22576206    -0.12200
C1462       C  0.50360801  0.89598980  0.23834748     0.04800
C1463       C  0.53121408  0.91353356  0.24245852    -0.07500
C1464       C  0.06198542  0.90176956  0.23693777    -0.08300
C1465       C  0.06480677  0.87353971  0.22565088    -0.02800
C1466       C  0.03659799  0.85898619  0.21863443     0.04000
N1467       N  0.03762875  0.83244495  0.20520042     0.66500
H1468       H  0.98532656  0.85739998  0.22152068     0.15400
H1469       H  0.08310424  0.91469794  0.24166706     0.15100
N1470       N  0.53006811  0.94072242  0.25531507     0.74200
O1471       O  0.03514072  0.83677762  0.18602110    -0.39300
O1472       O  0.03319849  0.80522868  0.21250100    -0.39200
O1473       O  0.53868102  0.93824952  0.27384274    -0.39900
O1474       O  0.52901901  0.96765276  0.24707168    -0.40000
C1475       C  0.29030814  0.90876230  0.27508693    -0.12200
C1476       C  0.31383737  0.88562026  0.27610578     0.04800
C1477       C  0.30497296  0.85367283  0.27371507    -0.07500
C1478       C  0.27398798  0.84597914  0.26741683    -0.08300
C1479       C  0.25181286  0.86976776  0.26355660    -0.02800
C1480       C  0.25957433  0.90121342  0.26870698     0.04000
N1481       N  0.23717005  0.92624840  0.26649538     0.66500
H1482       H  0.29635714  0.93334180  0.27747339     0.15400
H1483       H  0.26817505  0.82168672  0.26387861     0.15100
N1484       N  0.32730875  0.82887752  0.27699765     0.74200
O1485       O  0.22555197  0.93816429  0.28267483    -0.39300
O1486       O  0.23795392  0.94264377  0.25023553    -0.39200
O1487       O  0.32848021  0.81601326  0.29453712    -0.39900
O1488       O  0.33884794  0.81467479  0.26162153    -0.40000
C1489       C  0.35547278  0.54382179  0.25930905    -0.12200
C1490       C  0.35921776  0.55035913  0.23827322     0.04800
C1491       C  0.37253551  0.52696953  0.22542838    -0.07500
C1492       C  0.38269441  0.49807953  0.23402552    -0.08300
C1493       C  0.37752708  0.99469847  0.24854745    -0.02800
C1494       C  0.36458505  0.51500302  0.26779843     0.04000
N1495       N  0.35318965  0.01084232  0.28184514     0.66500
H1496       H  0.34590282  0.56174805  0.26947458     0.15400
H1497       H  0.39386619  0.98384147  0.21773321     0.15100
N1498       N  0.37799430  0.53293959  0.20403948     0.74200
O1499       O  0.36960747  0.52556747  0.30281776    -0.39300
O1500       O  0.32643237  0.99839095  0.28566915    -0.39200
O1501       O  0.40524447  0.54200412  0.19812221    -0.39900
O1502       O  0.35862731  0.52216030  0.19098975    -0.40000
C1503       C  0.42043655  0.75845318  0.24487871    -0.12200
C1504       C  0.39628024  0.74186265  0.25537676     0.04800
C1505       C  0.38553542  0.75398002  0.27452756    -0.07500
C1506       C  0.39735563  0.78324565  0.28168467    -0.08300
C1507       C  0.41946271  0.80079698  0.26992121    -0.02800
C1508       C  0.43192916  0.78718618  0.25183178     0.04000
N1509       N  0.45628430  0.80237455  0.23997222     0.66500
H1510       H  0.43058836  0.74944546  0.23066285     0.15400
H1511       H  0.38781695  0.79309626  0.29582088     0.15100
N1512       N  0.36240135  0.73747277  0.28666159     0.74200
O1513       O  0.48495737  0.79931813  0.24549553    -0.39300
O1514       O  0.45035270  0.80998879  0.22156099    -0.39200
O1515       O  0.37127031  0.72288802  0.30261151    -0.39900
O1516       O  0.33312111  0.74317561  0.28414527    -0.40000
C1517       C  0.10268544  0.60700242  0.39297453    -0.12200
C1518       C  0.13492281  0.60849383  0.39851628     0.04800
C1519       C  0.15782902  0.61681967  0.38348020    -0.07500
C1520       C  0.14850176  0.62059551  0.36290411    -0.08300
C1521       C  0.11642486  0.61703479  0.35700059    -0.02800
C1522       C  0.09315631  0.61182852  0.37253389     0.04000
N1523       N  0.05998346  0.60951750  0.36776697     0.66500
H1524       H  0.08478805  0.60129338  0.40455556     0.15400
H1525       H  0.16675042  0.62499951  0.35131901     0.15100
N1526       N  0.19090431  0.61926641  0.38851562     0.74200
O1527       O  0.04735165  0.58267990  0.36594468    -0.39300
O1528       O  0.04233771  0.63323193  0.37046758    -0.39200
O1529       O  0.20921337  0.59637706  0.38479099    -0.39900
O1530       O  0.20279606  0.64612113  0.39171094    -0.40000
C1531       C  0.10369060  0.73498799  0.48082625    -0.12200
C1532       C  0.12625676  0.75137892  0.49251434     0.04800
C1533       C  0.15729301  0.73845753  0.49469800    -0.07500
C1534       C  0.16379658  0.70821136  0.48744445    -0.08300
C1535       C  0.14024741  0.69054594  0.47759884    -0.02800
C1536       C  0.11059630  0.70484217  0.47312160     0.04000
N1537       N  0.08806365  0.68994555  0.45987037     0.66500
H1538       H  0.08030809  0.74513133  0.47820895     0.15400
H1539       H  0.18697580  0.69785907  0.49051340     0.15100
N1540       N  0.18247147  0.75553606  0.50447713     0.74200
O1541       O  0.06073389  0.68318427  0.46680514    -0.39300
O1542       O  0.09178341  0.69272291  0.44063047    -0.39200
O1543       O  0.19061063  0.74815536  0.52256630    -0.39900
O1544       O  0.20129021  0.77177160  0.49351294    -0.40000
C1545       C  0.09046972  0.99387483  0.50162069    -0.12200
C1546       C  0.12384304  0.50151273  0.51055128     0.04800
C1547       C  0.14408519  0.98271295  0.51340352    -0.07500
C1548       C  0.13372411  0.95274762  0.51973733    -0.08300
C1549       C  0.10210802  0.94277836  0.51651815    -0.02800
C1550       C  0.07989346  0.96431876  0.50839148     0.04000
N1551       N  0.04739211  0.95561804  0.50489685     0.66500
H1552       H  0.07350211  0.50876205  0.50509344     0.15400
H1553       H  0.15090156  0.93656396  0.52636273     0.15100
N1554       N  0.17949269  0.48921194  0.51990949     0.74200
O1555       O  0.02643171  0.96356492  0.51790607    -0.39300
O1556       O  0.03879736  0.94871138  0.48685704    -0.39200
O1557       O  0.19115013  0.49589576  0.53726174    -0.39900
O1558       O  0.19740201  0.98173415  0.50357127    -0.40000
C1559       C  0.35477718  0.88215616  0.37866114    -0.12200
C1560       C  0.37664214  0.88895054  0.39438610     0.04800
C1561       C  0.40932155  0.89252536  0.38898837    -0.07500
C1562       C  0.41878358  0.89152460  0.36819878    -0.08300
C1563       C  0.39637303  0.88723052  0.35246304    -0.02800
C1564       C  0.36420750  0.88131948  0.35796116     0.04000
N1565       N  0.34061282  0.87470004  0.34271339     0.66500
H1566       H  0.32972090  0.87859423  0.38228822     0.15400
H1567       H  0.44361144  0.89596326  0.36430960     0.15100
N1568       N  0.43322863  0.89784937  0.40423379     0.74200
O1569       O  0.33501753  0.84641456  0.33802425    -0.39300
O1570       O  0.32042834  0.89559368  0.33812994    -0.39200
O1571       O  0.45056374  0.87515534  0.40988640    -0.39900
O1572       O  0.44229227  0.92565511  0.40779681    -0.40000
C1573       C  0.27996774  0.49834949  0.44660883    -0.12200
C1574       C  0.27389286  0.97163746  0.43181547     0.04800
C1575       C  0.24215682  0.96499497  0.42566664    -0.07500
C1576       C  0.21817060  0.98790627  0.42785293    -0.08300
C1577       C  0.22360239  0.51334070  0.44336497    -0.02800
C1578       C  0.25576846  0.52118001  0.44783765     0.04000
N1579       N  0.26442698  0.55190463  0.45467399     0.66500
H1580       H  0.30390402  0.50474520  0.45135230     0.15400
H1581       H  0.19381420  0.98195799  0.42379527     0.15100
N1582       N  0.23435861  0.93613534  0.41558246     0.74200
O1583       O  0.26732866  0.55674393  0.47376420    -0.39300
O1584       O  0.27839746  0.57009004  0.44213177    -0.39200
O1585       O  0.23951983  0.93404915  0.39645387    -0.39900
O1586       O  0.21406879  0.91795197  0.42369371    -0.40000
C1587       C  0.25238006  0.86875351  0.52000858    -0.12200
C1588       C  0.25072365  0.88331674  0.50051735     0.04800
C1589       C  0.22087858  0.89071800  0.49222651    -0.07500
C1590       C  0.19337171  0.88220657  0.50279599    -0.08300
C1591       C  0.19467700  0.86340741  0.52061806    -0.02800
C1592       C  0.22446507  0.85806219  0.52997857     0.04000
N1593       N  0.22714053  0.83937066  0.54821314     0.66500
H1594       H  0.27544723  0.86307756  0.52655849     0.15400
H1595       H  0.17069408  0.88708823  0.49546437     0.15100
N1596       N  0.21783030  0.90257060  0.47177104     0.74200
O1597       O  0.23060704  0.80996339  0.54659533    -0.39300
O1598       O  0.23384713  0.85260687  0.56504270    -0.39200
O1599       O  0.21147535  0.88322307  0.45764217    -0.39900
O1600       O  0.21162278  0.93136265  0.46910805    -0.40000
C1601       C  0.46968909  0.88817989  0.47224128    -0.12200
C1602       C  0.44245389  0.88501786  0.48471835     0.04800
C1603       C  0.44505855  0.86923212  0.50391004    -0.07500
C1604       C  0.97507256  0.85962074  0.50753665    -0.08300
C1605       C  0.00194767  0.86214166  0.49465532    -0.02800
C1606       C  0.99831220  0.87683107  0.47510891     0.04000
N1607       N  0.02385783  0.87766333  0.46044248     0.66500
H1608       H  0.46769255  0.89891737  0.45712314     0.15400
H1609       H  0.97659978  0.84861414  0.52258982     0.15100
N1610       N  0.41813707  0.86444766  0.51727452     0.74200
O1611       O  0.02731545  0.85470740  0.44832762    -0.39300
O1612       O  0.03652420  0.90372404  0.45581912    -0.39200
O1613       O  0.40291887  0.83882255  0.51625403    -0.39900
O1614       O  0.41556382  0.88093418  0.53334729    -0.40000
C1615       C  0.00129230  0.71860477  0.56647878    -0.12200
C1616       C  0.46972475  0.72872063  0.56175422     0.04800
C1617       C  0.46679457  0.76119025  0.55687281    -0.07500
C1618       C  0.99507616  0.77957357  0.55102532    -0.08300
C1619       C  0.02495381  0.76958883  0.55807496    -0.02800
C1620       C  0.02790526  0.73900094  0.56621760     0.04000
N1621       N  0.05741356  0.72888212  0.57496853     0.66500
H1622       H  0.00423970  0.69503803  0.57261463     0.15400
H1623       H  0.49078512  0.80547752  0.55329790     0.15100
N1624       N  0.43761458  0.77422383  0.54936007     0.74200
O1625       O  0.06600235  0.73961934  0.59219671    -0.39300
O1626       O  0.07711165  0.71370843  0.56409697    -0.39200
O1627       O  0.42243642  0.79356809  0.56040613    -0.39900
O1628       O  0.43187486  0.77302079  0.53028987    -0.40000
C1629       C  0.04924564  0.62868453  0.49334235    -0.12200
C1630       C  0.04781448  0.60533652  0.47803388     0.04800
C1631       C  0.01771588  0.59715524  0.47001896    -0.07500
C1632       C  0.49041915  0.61633493  0.47807547    -0.08300
C1633       C  0.49192849  0.63559204  0.49576897    -0.02800
C1634       C  0.02190267  0.64270700  0.50144723     0.04000
N1635       N  0.02559972  0.66629652  0.51696938     0.66500
H1636       H  0.07205326  0.63562235  0.49974215     0.15400
H1637       H  0.46743727  0.61061491  0.47140699     0.15100
N1638       N  0.01458635  0.57269989  0.45511309     0.74200
O1639       O  0.03199214  0.65800725  0.53518959    -0.39300
O1640       O  0.03063056  0.69444516  0.51154955    -0.39200
O1641       O  0.00756699  0.54523477  0.46110232    -0.39900
O1642       O  0.01066649  0.57997859  0.43642280    -0.40000
C1643       C  0.24311526  0.62050826  0.52650876    -0.12200
C1644       C  0.23723969  0.62211819  0.50517249     0.04800
C1645       C  0.25861866  0.63878672  0.49245213    -0.07500
C1646       C  0.28641530  0.65082878  0.50061612    -0.08300
C1647       C  0.29401847  0.64782050  0.52166069    -0.02800
C1648       C  0.27134227  0.63345084  0.53489604     0.04000
N1649       N  0.27656686  0.63140790  0.55657673     0.66500
H1650       H  0.22616846  0.60866830  0.53657037     0.15400
H1651       H  0.30248626  0.66244256  0.48986649     0.15100
N1652       N  0.25204324  0.64481515  0.47116199     0.74200
O1653       O  0.26451137  0.65206360  0.56818191    -0.39300
O1654       O  0.28568907  0.60567252  0.56430108    -0.39200
O1655       O  0.23878719  0.67040050  0.46623139    -0.39900
O1656       O  0.26716514  0.62972113  0.45755362    -0.40000
C1657       C  0.41369810  0.53667977  0.50901431    -0.12200
C1658       C  0.39102745  0.55503970  0.51941678     0.04800
C1659       C  0.36035364  0.54230627  0.52332838    -0.07500
C1660       C  0.35269967  0.51193594  0.51654796    -0.08300
C1661       C  0.36573631  0.98657085  0.50441436    -0.02800
C1662       C  0.39628887  0.99204049  0.51271395     0.04000
N1663       N  0.41990157  0.96781218  0.51245931     0.66500
H1664       H  0.43694049  0.54649447  0.50529609     0.15400
H1665       H  0.32887342  0.50270112  0.51916654     0.15100
N1666       N  0.33638506  0.56020684  0.53369225     0.74200
O1667       O  0.43825216  0.96498860  0.49709345    -0.39300
O1668       O  0.41991794  0.94707100  0.52641364    -0.39200
O1669       O  0.31344052  0.57122444  0.52341554    -0.39900
O1670       O  0.33352570  0.55746945  0.55298591    -0.40000
C1671       C  0.39003763  0.75863150  0.47995622    -0.12200
C1672       C  0.36862070  0.74270206  0.49303170     0.04800
C1673       C  0.33620290  0.75226112  0.49341458    -0.07500
C1674       C  0.32665198  0.77870247  0.48238530    -0.08300
C1675       C  0.34860230  0.79658680  0.47118155    -0.02800
C1676       C  0.38033786  0.78571164  0.46912819     0.04000
N1677       N  0.40350477  0.80298139  0.45746525     0.66500
H1678       H  0.41477538  0.75122850  0.47912130     0.15400
H1679       H  0.30221911  0.78687531  0.48402843     0.15100
N1680       N  0.31253208  0.73618135  0.50541170     0.74200
O1681       O  0.42372805  0.81953545  0.46687613    -0.39300
O1682       O  0.40942613  0.79463382  0.43918928    -0.39200
O1683       O  0.30704368  0.74550675  0.52354311    -0.39900
O1684       O  0.29095866  0.72125670  0.49607930    -0.40000
C1685       C  0.04394057  0.76498295  0.94721973    -0.12200
C1686       C  0.03618864  0.73326722  0.94375513     0.04800
C1687       C  0.50386765  0.72668422  0.94092863    -0.07500
C1688       C  0.48062976  0.75055171  0.93952143    -0.08300
C1689       C  0.48866713  0.78261526  0.94120040    -0.02800
C1690       C  0.02093501  0.78887951  0.94628885     0.04000
N1691       N  0.03103686  0.82035583  0.95049375     0.66500
H1692       H  0.06821044  0.77149618  0.95110572     0.15400
H1693       H  0.45582798  0.74369788  0.93791657     0.15100
N1694       N  0.49346891  0.69466261  0.93995666     0.74200
O1695       O  0.03314185  0.82931806  0.96897565    -0.39300
O1696       O  0.04518364  0.83584615  0.93654963    -0.39200
O1697       O  0.48188254  0.68182669  0.95589351    -0.39900
O1698       O  0.48844990  0.68236607  0.92257829    -0.40000
C1699       C  0.15730317  0.90871507  0.11834698    -0.12200
C1700       C  0.15058066  0.88447732  0.10443071     0.04800
C1701       C  0.14638926  0.85354397  0.11210959    -0.07500
C1702       C  0.14910780  0.84764435  0.13333190    -0.08300
C1703       C  0.15717933  0.87180467  0.14705474    -0.02800
C1704       C  0.16125734  0.90260210  0.13935064     0.04000
N1705       N  0.16782617  0.92843560  0.15262311     0.66500
H1706       H  0.16090911  0.93258531  0.11278679     0.15400
H1707       H  0.14597549  0.82379231  0.13903106     0.15100
N1708       N  0.13956392  0.82783697  0.09868505     0.74200
O1709       O  0.19651973  0.93531757  0.15641474    -0.39300
O1710       O  0.14682901  0.94952698  0.15428047    -0.39200
O1711       O  0.16152318  0.80863680  0.09429361    -0.39900
O1712       O  0.11088780  0.81983246  0.09592082    -0.40000
C1713       C  0.03341053  0.87546569  0.03233583    -0.12200
C1714       C  0.04811191  0.90324767  0.02518193     0.04800
C1715       C  0.03179975  0.92179446  0.01061855    -0.07500
C1716       C  0.50507645  0.91126222  0.00104507    -0.08300
C1717       C  0.49182360  0.88204066  0.00649055    -0.02800
C1718       C  0.00509115  0.86409853  0.02311793     0.04000
N1719       N  0.99247357  0.83435697  0.02951683     0.66500
H1720       H  0.04528246  0.86131912  0.04388701     0.15400
H1721       H  0.49409676  0.92578398  0.98925293     0.15100
N1722       N  0.04410318  0.95140712  0.00379560     0.74200
O1723       O  0.00009576  0.80977226  0.01978781    -0.39300
O1724       O  0.97916321  0.83189936  0.04694189    -0.39200
O1725       O  0.05857620  0.95274898  0.98670146    -0.39900
O1726       O  0.03180650  0.97618299  0.01100639    -0.40000
C1727       C  0.29393916  0.84170127  0.99903999    -0.12200
C1728       C  0.30296050  0.84904668  0.97888067     0.04800
C1729       C  0.28249133  0.86762779  0.96670454    -0.07500
C1730       C  0.25345557  0.87888241  0.97510222    -0.08300
C1731       C  0.24511720  0.87223314  0.99574413    -0.02800
C1732       C  0.26536799  0.85252259  0.00744096     0.04000
N1733       N  0.25775010  0.84377033  0.02819530     0.66500
H1734       H  0.31049040  0.82950730  0.00899307     0.15400
H1735       H  0.23831985  0.89401954  0.96590148     0.15100
N1736       N  0.29229367  0.87728175  0.94652610     0.74200
O1737       O  0.24671178  0.81660634  0.03166681    -0.39300
O1738       O  0.27028848  0.85881848  0.04282386    -0.39200
O1739       O  0.29078934  0.85789553  0.93185334    -0.39900
O1740       O  0.30892222  0.90189993  0.94442835    -0.40000
C1741       C  0.17013966  0.78193681  0.02028748    -0.12200
C1742       C  0.14464560  0.80261225  0.02327278     0.04800
C1743       C  0.11313775  0.79064820  0.02238711    -0.07500
C1744       C  0.10781517  0.75922972  0.01675883    -0.08300
C1745       C  0.13341331  0.73975849  0.01143773    -0.02800
C1746       C  0.16491671  0.75096987  0.01407397     0.04000
N1747       N  0.19193469  0.73232879  0.00850232     0.66500
H1748       H  0.19453425  0.79055114  0.02095561     0.15400
H1749       H  0.08348313  0.75098405  0.01468661     0.15100
N1750       N  0.08622774  0.81028336  0.02628386     0.74200
O1751       O  0.20675483  0.73900886  0.99208384    -0.39300
O1752       O  0.20608497  0.71682869  0.02233572    -0.39200
O1753       O  0.07236184  0.82315119  0.01123312    -0.39900
O1754       O  0.07147627  0.80728566  0.04318393    -0.40000
C1755       C  0.13816779  0.53480496  0.96894992    -0.12200
C1756       C  0.11134676  0.55114571  0.97639561     0.04800
C1757       C  0.09210228  0.53673644  0.99130709    -0.07500
C1758       C  0.10194558  0.50888727  0.00063937    -0.08300
C1759       C  0.12972852  0.99420449  0.99357153    -0.02800
C1760       C  0.14825639  0.00725182  0.97742359     0.04000
N1761       N  0.17822124  0.99379964  0.97169036     0.66500
H1762       H  0.15230593  0.54510569  0.95670892     0.15400
H1763       H  0.08749186  0.49986076  0.01316120     0.15100
N1764       N  0.06265538  0.55074637  0.99747728     0.74200
O1765       O  0.18112160  0.98071757  0.95434454    -0.39300
O1766       O  0.20295518  0.00145603  0.98153202    -0.39200
O1767       O  0.03916675  0.54997891  0.98539739    -0.39900
O1768       O  0.06093981  0.56626664  0.01399890    -0.40000
C1769       C  0.37020571  0.64363153  0.11099335    -0.12200
C1770       C  0.36124749  0.61314362  0.10505785     0.04800
C1771       C  0.35252779  0.59137369  0.12067314    -0.07500
C1772       C  0.35272818  0.60045477  0.14153246    -0.08300
C1773       C  0.36127359  0.63116048  0.14754218    -0.02800
C1774       C  0.37052810  0.65273585  0.13183077     0.04000
N1775       N  0.37968899  0.68430412  0.13655740     0.66500
H1776       H  0.37679242  0.66077496  0.09928485     0.15400
H1777       H  0.34518883  0.58342780  0.15306802     0.15100
N1778       N  0.34092075  0.56070970  0.11559338     0.74200
O1779       O  0.40893999  0.69091266  0.13821839    -0.39300
O1780       O  0.35977435  0.70627605  0.13416874    -0.39200
O1781       O  0.35862652  0.53709372  0.11844591    -0.39900
O1782       O  0.31131973  0.55664177  0.11318961    -0.40000
C1783       C  0.21979332  0.51163633  0.05642647    -0.12200
C1784       C  0.22801438  0.97913532  0.05863805     0.04800
C1785       C  0.25899754  0.97252429  0.06621547    -0.07500
C1786       C  0.28325342  0.99551641  0.06505701    -0.08300
C1787       C  0.27508534  0.52821973  0.06091249    -0.02800
C1788       C  0.24308445  0.53545326  0.05608920     0.04000
N1789       N  0.23407584  0.56617381  0.04923961     0.66500
H1790       H  0.19577533  0.51779629  0.05173480     0.15400
H1791       H  0.30694093  0.98960681  0.07051305     0.15100
N1792       N  0.26670071  0.94245744  0.07471944     0.74200
O1793       O  0.23290088  0.57175447  0.03014310    -0.39300
O1794       O  0.21943209  0.58413280  0.06152050    -0.39200
O1795       O  0.28229786  0.92310669  0.06392768    -0.39900
O1796       O  0.26538467  0.93865609  0.09400709    -0.40000
C1797       C  0.23629933  0.66929131  0.97660751    -0.12200
C1798       C  0.21293125  0.64629887  0.97283263     0.04800
C1799       C  0.22030650  0.61448276  0.97676063    -0.07500
C1800       C  0.24910439  0.60630390  0.98589755    -0.08300
C1801       C  0.27092045  0.62940488  0.99137130    -0.02800
C1802       C  0.26529750  0.66103538  0.98597224     0.04000
N1803       N  0.28722624  0.68512447  0.99194504     0.66500
H1804       H  0.23111438  0.69384490  0.97368009     0.15400
H1805       H  0.25374925  0.58181607  0.98966877     0.15100
N1806       N  0.19806381  0.59006138  0.97271976     0.74200
O1807       O  0.31200305  0.68998032  0.98125567    -0.39300
O1808       O  0.28511480  0.69694572  0.00972846    -0.39200
O1809       O  0.20090771  0.57533883  0.95594987    -0.39900
O1810       O  0.18502153  0.57650485  0.98791310    -0.40000
C1811       C  0.47445345  0.61480580  0.03266323    -0.12200
C1812       C  0.45724421  0.59362583  0.02033870     0.04800
C1813       C  0.46844603  0.58751727  0.00009173    -0.07500
C1814       C  0.49353810  0.60477010  0.99188460    -0.08300
C1815       C  0.01577809  0.62532606  0.00294044    -0.02800
C1816       C  0.00689131  0.62888545  0.02389260     0.04000
N1817       N  0.02429063  0.64937047  0.03716845     0.66500
H1818       H  0.46603043  0.62028613  0.04807466     0.15400
H1819       H  0.00452460  0.60167401  0.97453368     0.15100
N1820       N  0.45467600  0.56355032  0.98747652     0.74200
O1821       O  0.01641769  0.67800181  0.03825454    -0.39300
O1822       O  0.04147929  0.63766572  0.05114236    -0.39200
O1823       O  0.44003636  0.57140207  0.97129589    -0.39900
O1824       O  0.46443205  0.53559520  0.98938039    -0.40000
C1825       C  0.38500298  0.50580416  0.97612527    -0.12200
C1826       C  0.36133465  0.50643575  0.99150743     0.04800
C1827       C  0.34681546  0.98083225  0.98996539    -0.07500
C1828       C  0.35749621  0.95184914  0.98232927    -0.08300
C1829       C  0.38591844  0.94981332  0.97070497    -0.02800
C1830       C  0.40191600  0.97776194  0.96503774     0.04000
N1831       N  0.43063466  0.97694984  0.95308491     0.66500
H1832       H  0.39655722  0.52752542  0.97147946     0.15400
H1833       H  0.34456051  0.93063561  0.98646312     0.15100
N1834       N  0.31851317  0.98229411  0.00232607     0.74200
O1835       O  0.42185645  0.48671491  0.93716335    -0.39300
O1836       O  0.45718404  0.97524750  0.96213082    -0.39200
O1837       O  0.29652051  0.49198404  0.01018570    -0.39900
O1838       O  0.31962039  0.97451197  0.02109208    -0.40000
C1839       C  0.35934400  0.72043234  0.02550798    -0.12200
C1840       C  0.37826116  0.69501254  0.01904281     0.04800
C1841       C  0.40538908  0.70156990  0.00650721    -0.07500
C1842       C  0.41170249  0.73234544  0.00001413    -0.08300
C1843       C  0.39116752  0.75722499  0.00491666    -0.02800
C1844       C  0.36514759  0.75118969  0.01836123     0.04000
N1845       N  0.34184006  0.77468942  0.02275385     0.66500
H1846       H  0.33843836  0.71621317  0.03505660     0.15400
H1847       H  0.43188385  0.73640663  0.98977309     0.15100
N1848       N  0.42576657  0.67726448  0.99885827     0.74200
O1849       O  0.31506779  0.77261625  0.01401785    -0.39300
O1850       O  0.34383750  0.78977951  0.03943232    -0.39200
O1851       O  0.41893310  0.66413030  0.98200696    -0.39900
O1852       O  0.45405428  0.67582765  0.00533295    -0.40000
C1853       C  0.35467659  0.84974392  0.88818746    -0.12200
C1854       C  0.38629664  0.85705378  0.89376580     0.04800
C1855       C  0.40774810  0.86657493  0.87795177    -0.07500
C1856       C  0.39774390  0.86720502  0.85732917    -0.08300
C1857       C  0.36657868  0.85873284  0.85179451    -0.02800
C1858       C  0.34474620  0.85033752  0.86754367     0.04000
N1859       N  0.31331449  0.83950364  0.86277689     0.66500
H1860       H  0.33765463  0.84223602  0.89984701     0.15400
H1861       H  0.41484783  0.87364209  0.84543135     0.15100
N1862       N  0.44021540  0.87433939  0.88224847     0.74200
O1863       O  0.30879686  0.81053894  0.85955965    -0.39300
O1864       O  0.28968535  0.85692884  0.86669301    -0.39200
O1865       O  0.46169729  0.85428704  0.87856665    -0.39900
O1866       O  0.44790603  0.90289680  0.88430327    -0.40000
C1867       C  0.13050121  0.62386203  0.86283140    -0.12200
C1868       C  0.14372783  0.65121633  0.85402915     0.04800
C1869       C  0.14967099  0.67740100  0.86674747    -0.07500
C1870       C  0.14133877  0.67635811  0.88748172    -0.08300
C1871       C  0.12633350  0.64988332  0.89631287    -0.02800
C1872       C  0.12148129  0.62304849  0.88379440     0.04000
N1873       N  0.10649482  0.59532638  0.89174018     0.66500
H1874       H  0.12581914  0.60354151  0.85320876     0.15400
H1875       H  0.14623006  0.69716031  0.89660865     0.15100
N1876       N  0.16392767  0.70561730  0.85886343     0.74200
O1877       O  0.07676612  0.59191378  0.88960560    -0.39300
O1878       O  0.12342952  0.57159341  0.89586093    -0.39200
O1879       O  0.14654733  0.72943606  0.85587922    -0.39900
O1880       O  0.19377661  0.70914505  0.86007422    -0.40000
C1881       C  0.24286960  0.78633589  0.80984533    -0.12200
C1882       C  0.27497431  0.77794923  0.80682053     0.04800
C1883       C  0.28246335  0.74564625  0.80462001    -0.07500
C1884       C  0.25795167  0.72309147  0.80408955    -0.08300
C1885       C  0.22567659  0.73177537  0.80566476    -0.02800
C1886       C  0.21836011  0.76379880  0.80930697     0.04000
N1887       N  0.18632111  0.77393572  0.81290197     0.66500
H1888       H  0.23658693  0.81081763  0.81224882     0.15400
H1889       H  0.26429195  0.69867832  0.80139558     0.15100
N1890       N  0.31450265  0.73533500  0.80134561     0.74200
O1891       O  0.17101514  0.78664764  0.79838823    -0.39300
O1892       O  0.17704813  0.77812664  0.83122465    -0.39200
O1893       O  0.32969964  0.72372384  0.81629483    -0.39900
O1894       O  0.32370982  0.72952619  0.78319964    -0.40000
C1895       C  0.10979740  0.85391499  0.63721778    -0.12200
C1896       C  0.10879984  0.88607317  0.64183694     0.04800
C1897       C  0.10752284  0.90812257  0.62545876    -0.07500
C1898       C  0.10615840  0.89756572  0.60507080    -0.08300
C1899       C  0.10625040  0.86531771  0.60045802    -0.02800
C1900       C  0.10871688  0.84334654  0.61686507     0.04000
N1901       N  0.10855626  0.81014107  0.61339699     0.66500
H1902       H  0.11094166  0.83665265  0.64956278     0.15400
H1903       H  0.10435269  0.91484225  0.59277816     0.15100
N1904       N  0.10580690  0.94123647  0.62916462     0.74200
O1905       O  0.13480530  0.79563473  0.61259103    -0.39300
O1906       O  0.08326020  0.79481648  0.61686836    -0.39200
O1907       O  0.13029718  0.95797720  0.62610862    -0.39900
O1908       O  0.07881021  0.95431858  0.63017675    -0.40000
C1909       C  0.46847597  0.88529117  0.77693310    -0.12200
C1910       C  0.45439119  0.85821853  0.76853066     0.04800
C1911       C  0.47113454  0.84089188  0.75348214    -0.07500
C1912       C  0.01518671  0.85921743  0.76378090    -0.08300
C1913       C  0.01753379  0.88899535  0.75442826    -0.02800
C1914       C  0.49853291  0.89578106  0.77005946     0.04000
N1915       N  0.51148912  0.92413149  0.77834589     0.66500
H1916       H  0.45543501  0.89911169  0.78821317     0.15400
H1917       H  0.03591730  0.84392142  0.76417401     0.15100
N1918       N  0.45694311  0.81437981  0.74352835     0.74200
O1919       O  0.50182418  0.95027802  0.77152304    -0.39300
O1920       O  0.99246833  0.96279363  0.75731600    -0.39200
O1921       O  0.44197759  0.81858468  0.72690549    -0.39900
O1922       O  0.46662655  0.78708604  0.74798199    -0.40000
C1923       C  0.26484444  0.88051412  0.71873879    -0.12200
C1924       C  0.26336707  0.86315925  0.73725106     0.04800
C1925       C  0.23355273  0.85414874  0.74516203    -0.07500
C1926       C  0.20594671  0.86535170  0.73601622    -0.08300
C1927       C  0.20697219  0.88585103  0.71897630    -0.02800
C1928       C  0.23672276  0.89193103  0.70944156     0.04000
N1929       N  0.23918141  0.91172135  0.69167279     0.66500
H1930       H  0.28786544  0.88748408  0.71248713     0.15400
H1931       H  0.18337227  0.85962411  0.74338538     0.15100
N1932       N  0.23083551  0.83570574  0.76353725     0.74200
O1933       O  0.24471590  0.94071074  0.69398801    -0.39300
O1934       O  0.24419129  0.89928520  0.67430810    -0.39200
O1935       O  0.22378241  0.84920501  0.78025409    -0.39900
O1936       O  0.22683843  0.80634479  0.76201985    -0.40000
C1937       C  0.08821318  0.79046641  0.73773281    -0.12200
C1938       C  0.11087017  0.80603296  0.72556330     0.04800
C1939       C  0.13984237  0.79053911  0.72074943    -0.07500
C1940       C  0.14629397  0.76078995  0.72925351    -0.08300
C1941       C  0.12451272  0.74607432  0.74265336    -0.02800
C1942       C  0.09470273  0.76100980  0.74642877     0.04000
N1943       N  0.07112538  0.74746287  0.75977804     0.66500
H1944       H  0.06601009  0.80219763  0.74170135     0.15400
H1945       H  0.16891781  0.74955059  0.72575859     0.15100
N1946       N  0.16262787  0.80418678  0.70687897     0.74200
O1947       O  0.06954325  0.75649393  0.77827967    -0.39300
O1948       O  0.04749614  0.73347680  0.75199563    -0.39200
O1949       O  0.19103996  0.80785302  0.71278352    -0.39900
O1950       O  0.15702995  0.80342516  0.68778782    -0.40000
C1951       C  0.15841549  0.51243996  0.73930636    -0.12200
C1952       C  0.13674446  0.99760103  0.74971430     0.04800
C1953       C  0.13486134  0.00305256  0.77121279    -0.07500
C1954       C  0.13495379  0.53575179  0.77637742    -0.08300
C1955       C  0.15690310  0.55383010  0.76477876    -0.02800
C1956       C  0.16923062  0.54126382  0.74638476     0.04000
N1957       N  0.19285680  0.55747427  0.73442524     0.66500
H1958       H  0.16852149  0.50424335  0.72487758     0.15400
H1959       H  0.12495369  0.54531782  0.79047979     0.15100
N1960       N  0.12000033  0.98082579  0.78474575     0.74200
O1961       O  0.22126201  0.54772648  0.73507372    -0.39300
O1962       O  0.18406641  0.57335577  0.71899185    -0.39200
O1963       O  0.13714893  0.96434469  0.79651332    -0.39900
O1964       O  0.09054674  0.98336953  0.78856808    -0.40000
C1965       C  0.37984278  0.63997384  0.64117793    -0.12200
C1966       C  0.39988323  0.61495284  0.64667085     0.04800
C1967       C  0.41468865  0.59722614  0.63100668    -0.07500
C1968       C  0.41002361  0.60520239  0.61030047    -0.08300
C1969       C  0.39147380  0.63139832  0.60457663    -0.02800
C1970       C  0.37573296  0.64854174  0.62037152     0.04000
N1971       N  0.35609054  0.67506981  0.61572607     0.66500
H1972       H  0.36828496  0.65370872  0.65313919     0.15400
H1973       H  0.42246147  0.59154261  0.59868191     0.15100
N1974       N  0.43530626  0.57147766  0.63586158     0.74200
O1975       O  0.32623729  0.67143673  0.61471856    -0.39300
O1976       O  0.36736176  0.70244975  0.61779401    -0.39200
O1977       O  0.42497224  0.54368236  0.63416145    -0.39900
O1978       O  0.46503327  0.57612676  0.63668488    -0.40000
C1979       C  0.04277307  0.50598862  0.68356358    -0.12200
C1980       C  0.03747238  0.98552723  0.68621043     0.04800
C1981       C  0.50638877  0.97710078  0.68416877    -0.07500
C1982       C  0.48397079  0.00182318  0.68436840    -0.08300
C1983       C  0.49218333  0.53225992  0.68905538    -0.02800
C1984       C  0.02094313  0.53081467  0.68316489     0.04000
N1985       N  0.03295103  0.56215056  0.68092725     0.66500
H1986       H  0.06802459  0.51161703  0.68312851     0.15400
H1987       H  0.45931309  0.99639861  0.68079144     0.15100
N1988       N  0.49559880  0.94637641  0.67856174     0.74200
O1989       O  0.04548162  0.57550395  0.69623860    -0.39300
O1990       O  0.03912643  0.57238501  0.66306348    -0.39200
O1991       O  0.48019867  0.93009085  0.69153406    -0.39900
O1992       O  0.49435831  0.93914347  0.65972276    -0.40000
C1993       C  0.36973874  0.00626843  0.77041455    -0.12200
C1994       C  0.39729892  0.50869643  0.75577016     0.04800
C1995       C  0.40071989  0.97667125  0.74542259    -0.07500
C1996       C  0.38888163  0.94889326  0.75398684    -0.08300
C1997       C  0.36607633  0.94900702  0.76992659    -0.02800
C1998       C  0.35771046  0.97802817  0.77894277     0.04000
N1999       N  0.33546099  0.97953469  0.79564341     0.66500
H2000       H  0.36711430  0.53124020  0.77856857     0.15400
H2001       H  0.39638079  0.92681705  0.74713101     0.15100
N2002       N  0.43328157  0.47753592  0.73320626     0.74200
O2003       O  0.34582573  0.98262160  0.81376242    -0.39300
O2004       O  0.30662537  0.98587168  0.79194778    -0.39200
O2005       O  0.46254439  0.47448872  0.73726513    -0.39900
O2006       O  0.42344780  0.47041322  0.71546027    -0.40000
C2007       C  0.41386880  0.71192340  0.75069576    -0.12200
C2008       C  0.40892508  0.70326480  0.73006959     0.04800
C2009       C  0.39285478  0.72448711  0.71692694    -0.07500
C2010       C  0.38123132  0.75311479  0.72498226    -0.08300
C2011       C  0.38510383  0.76031173  0.74597150    -0.02800
C2012       C  0.40260493  0.73986036  0.75863834     0.04000
N2013       N  0.40932059  0.74695172  0.77976634     0.66500
H2014       H  0.42537673  0.69623240  0.76134014     0.15400
H2015       H  0.36801837  0.76898773  0.71511983     0.15100
N2016       N  0.38584894  0.71646859  0.69608270     0.74200
O2017       O  0.39278199  0.73406639  0.79374582    -0.39300
O2018       O  0.43628218  0.75814562  0.78434203    -0.39200
O2019       O  0.35883297  0.70505420  0.69187242    -0.39900
O2020       O  0.40271222  0.72802009  0.68176869    -0.40000
C2021       C  0.03160523  0.59309506  0.74809716    -0.12200
C2022       C  0.50130741  0.61956827  0.76170472     0.04800
C2023       C  0.00711836  0.62206327  0.77603785    -0.07500
C2024       C  0.03736278  0.63277654  0.78210865    -0.08300
C2025       C  0.06452012  0.62578703  0.77020956    -0.02800
C2026       C  0.06161415  0.60400328  0.75374828     0.04000
N2027       N  0.08832761  0.59405025  0.74160621     0.66500
H2028       H  0.02942542  0.57832836  0.73455826     0.15400
H2029       H  0.03915914  0.64866031  0.79512354     0.15100
N2030       N  0.48253319  0.67246743  0.77198065     0.74200
O2031       O  0.09572118  0.56527718  0.74189223    -0.39300
O2032       O  0.09626502  0.61028991  0.72607419    -0.39200
O2033       O  0.46579235  0.67602016  0.78803741    -0.39900
O2034       O  0.48493881  0.69495429  0.75931243    -0.40000
C2035       C  0.30275853  0.64066614  0.72495831    -0.12200
C2036       C  0.31272838  0.60939064  0.72803048     0.04800
C2037       C  0.29299741  0.58867800  0.73916185    -0.07500
C2038       C  0.26573776  0.60030136  0.74907776    -0.08300
C2039       C  0.25617828  0.63185188  0.74666193    -0.02800
C2040       C  0.27421843  0.65178088  0.73368812     0.04000
N2041       N  0.26545142  0.68393512  0.73063293     0.66500
H2042       H  0.31806577  0.65696209  0.71663447     0.15400
H2043       H  0.25196261  0.58458172  0.75883715     0.15100
N2044       N  0.30174649  0.55642246  0.74185664     0.74200
O2045       O  0.27652547  0.70471941  0.74249678    -0.39300
O2046       O  0.25326538  0.69214858  0.71369894    -0.39200
O2047       O  0.31714149  0.54814399  0.75761450    -0.39900
O2048       O  0.29788774  0.53717782  0.72728286    -0.40000
O2049       O  0.93658147  0.05373650  0.68673300    -0.85300
O2050       O  0.90157844  0.03524846  0.71986676    -0.82400
C2051       C  0.89085141  0.03535557  0.73793840     0.98100
O2052       O  0.88891056  0.06081991  0.74780313    -0.82400
O2053       O  0.94793095  0.09313853  0.75100824    -0.85100
C2054       C  0.96974789  0.11293808  0.74727787     1.02700
O2055       O  0.96891407  0.12939577  0.73096932    -0.77800
O2056       O  0.97325554  0.08359598  0.70133046    -0.78000
C2057       C  0.96558686  0.05864420  0.69202306     1.02600
O2058       O  0.88503225  0.09895437  0.67711293    -0.85300
O2059       O  0.85081143  0.08034178  0.71118482    -0.82400
C2060       C  0.84217224  0.10307659  0.72278265     0.98200
O2061       O  0.86210324  0.11775185  0.73344998    -0.82400
O2062       O  0.91530312  0.14958993  0.73975153    -0.85000
C2063       C  0.91315664  0.16887562  0.72491229     1.02600
O2064       O  0.92004532  0.16013219  0.70682133    -0.77800
O2065       O  0.93308606  0.11779702  0.67458258    -0.78000
C2066       C  0.90629551  0.11224113  0.66656440     1.02600
Cr2067     Cr  0.89508328  0.06937526  0.69984031     1.93700
Cr2068     Cr  0.90465323  0.10432761  0.74099628     1.93200
Cr2069     Cr  0.94626959  0.12105580  0.70413773     1.39100
O2070       O  0.91517346  0.09782011  0.71493039    -1.23100
O2071       O  0.58625815  0.46260139  0.69984080    -0.85300
O2072       O  0.63802167  0.45908933  0.72457362    -0.82400
C2073       C  0.62738697  0.46239407  0.74271640     0.98100
O2074       O  0.61046479  0.44077107  0.75073023    -0.82400
O2075       O  0.57541430  0.38287104  0.75168876    -0.85100
C2076       C  0.54726820  0.38774860  0.74560400     1.02700
O2077       O  0.54228400  0.39855659  0.72787446    -0.77800
O2078       O  0.55190080  0.42633166  0.69035636    -0.78000
C2079       C  0.55903372  0.45509898  0.69315753     1.02600
O2080       O  0.61362150  0.41946768  0.67206376    -0.85300
O2081       O  0.66454408  0.41002885  0.69998893    -0.82400
C2082       C  0.67870878  0.40588154  0.71699639     0.98200
O2083       O  0.66326695  0.40688034  0.73377099    -0.82400
O2084       O  0.62763684  0.35400242  0.73063980    -0.85000
C2085       C  0.60779139  0.33511566  0.72299354     1.02600
O2086       O  0.58125571  0.34490091  0.71605566    -0.77800
O2087       O  0.59307841  0.37354014  0.67932821    -0.78000
C2088       C  0.60481088  0.39251459  0.66648688     1.02600
Cr2089     Cr  0.62409240  0.43536939  0.70014559     1.93700
Cr2090     Cr  0.61761933  0.39702825  0.73979118     1.93200
Cr2091     Cr  0.56976027  0.38735965  0.70422575     1.39100
O2092       O  0.60347193  0.40664802  0.71472448    -1.23100
O2093       O  0.67388332  0.21773346  0.79080798    -0.85300
O2094       O  0.61943373  0.20873504  0.76649644    -0.82400
C2095       C  0.63367141  0.21109031  0.74945015     0.98100
O2096       O  0.65409119  0.19072777  0.74448050    -0.82400
O2097       O  0.69251730  0.13687529  0.74592002    -0.85100
C2098       C  0.71956493  0.13928557  0.75433678     1.02700
O2099       O  0.72210193  0.14642688  0.77309368    -0.77800
O2100       O  0.70506404  0.18265206  0.80608205    -0.78000
C2101       C  0.69964215  0.21087206  0.79997700     1.02600
O2102       O  0.64683342  0.18063814  0.82170280    -0.85300
O2103       O  0.59889947  0.16163186  0.79465137    -0.82400
C2104       C  0.58692787  0.15047893  0.77837669     0.98200
O2105       O  0.60146340  0.15255483  0.76117915    -0.82400
O2106       O  0.64026266  0.10444927  0.76389971    -0.85000
C2107       C  0.65851268  0.08589859  0.77304401     1.02600
O2108       O  0.68007038  0.09587553  0.78514555    -0.77800
O2109       O  0.66136616  0.13180709  0.81962449    -0.78000
C2110       C  0.65136320  0.15454656  0.83030038     1.02600
Cr2111     Cr  0.63641309  0.18974645  0.79249249     1.93700
Cr2112     Cr  0.64821046  0.14744145  0.75571520     1.93200
Cr2113     Cr  0.68953621  0.14051701  0.79505709     1.39100
O2114       O  0.65864271  0.15895573  0.78093902    -1.23100
O2115       O  0.82870586  0.29916835  0.80842180    -0.85300
O2116       O  0.85651912  0.28635315  0.77202492    -0.82400
C2117       C  0.86975892  0.28829372  0.75474345     0.98100
O2118       O  0.87515680  0.31480225  0.74672012    -0.82400
O2119       O  0.81725975  0.34947932  0.74557358    -0.85100
C2120       C  0.79589291  0.36850848  0.75142279     1.02700
O2121       O  0.79760809  0.38089823  0.76922355    -0.77800
O2122       O  0.79262469  0.33162301  0.79612591    -0.78000
C2123       C  0.79988023  0.30515652  0.80372618     1.02600
O2124       O  0.88315549  0.33971838  0.81812975    -0.85300
O2125       O  0.91310195  0.32323405  0.78183111    -0.82400
C2126       C  0.92362004  0.34785683  0.77285480     0.98200
O2127       O  0.90479776  0.36742822  0.76489184    -0.82400
O2128       O  0.85147736  0.40273043  0.76048107    -0.85000
C2129       C  0.85665292  0.41835945  0.77665601     1.02600
O2130       O  0.84834072  0.40740268  0.79405948    -0.77800
O2131       O  0.83633295  0.36023076  0.82406177    -0.78000
C2132       C  0.86353362  0.35188589  0.83048860     1.02600
Cr2133     Cr  0.86908843  0.31455032  0.79423296     1.93700
Cr2134     Cr  0.86109066  0.35747742  0.75631304     1.93200
Cr2135     Cr  0.82090211  0.36865047  0.79504008     1.39100
O2136       O  0.85048540  0.34671389  0.78194157    -1.23100
O2137       O  0.83256922  0.03534542  0.04621987    -0.85300
O2138       O  0.87676856  0.03166096  0.01574130    -0.82400
C2139       C  0.86158448  0.03306496  0.99872628     0.98100
O2140       O  0.84892274  0.05842427  0.99261169    -0.82400
O2141       O  0.82923863  0.12200193  0.99300884    -0.85100
C2142       C  0.80100509  0.11817766  0.99888878     1.02700
O2143       O  0.79545847  0.10673535  0.01635719    -0.77800
O2144       O  0.80109118  0.07601268  0.05234360    -0.78000
C2145       C  0.80558822  0.04650695  0.05111024     1.02600
O2146       O  0.87144105  0.07602243  0.07064500    -0.85300
O2147       O  0.91728891  0.07864813  0.03779119    -0.82400
C2148       C  0.92813020  0.08192073  0.01960230     0.98200
O2149       O  0.90929112  0.07756271  0.00500965    -0.82400
O2150       O  0.88701297  0.13753711  0.01191938    -0.85000
C2151       C  0.87087757  0.15919607  0.02015863     1.02600
O2152       O  0.84395552  0.15323281  0.02871241    -0.77800
O2153       O  0.84861062  0.12161494  0.06540914    -0.78000
C2154       C  0.86194053  0.10239232  0.07741516     1.02600
Cr2155     Cr  0.87358171  0.05796809  0.04167839     1.93700
Cr2156     Cr  0.86739839  0.09815586  0.00275701     1.93200
Cr2157     Cr  0.82471257  0.11267444  0.03985629     1.39100
O2158       O  0.85481148  0.08950122  0.02843120    -1.23100
O2159       O  0.67989865  0.46289168  0.05253808    -0.85300
O2160       O  0.62914870  0.46290758  0.02612109    -0.82400
C2161       C  0.64078032  0.46606181  0.00820795     0.98100
O2162       O  0.65817144  0.44433085  0.00074334    -0.82400
O2163       O  0.69213871  0.38471582  0.99996086    -0.85100
C2164       C  0.71967562  0.38605442  0.00793335     1.02700
O2165       O  0.72288923  0.39660287  0.02584574    -0.77800
O2166       O  0.71088954  0.42415141  0.06274229    -0.78000
C2167       C  0.70645352  0.45337256  0.05940392     1.02600
O2168       O  0.64753532  0.41888447  0.07849444    -0.85300
O2169       O  0.59892148  0.41317995  0.04869867    -0.82400
C2170       C  0.58606298  0.40946969  0.03119378     0.98200
O2171       O  0.60288929  0.41101673  0.01495382    -0.82400
O2172       O  0.63646869  0.35644363  0.01809443    -0.85000
C2173       C  0.65460705  0.33652356  0.02644761     1.02600
O2174       O  0.68024831  0.34504941  0.03515752    -0.77800
O2175       O  0.66614521  0.37232632  0.07169855    -0.78000
C2176       C  0.65428211  0.39133184  0.08430977     1.02600
Cr2177     Cr  0.64042580  0.43703293  0.05047118     1.93700
Cr2178     Cr  0.64891325  0.39997031  0.01044317     1.93200
Cr2179     Cr  0.69240004  0.38636393  0.04794897     1.39100
O2180       O  0.66091250  0.40783400  0.03623633    -1.23100
O2181       O  0.93670728  0.29905889  0.93972666    -0.85300
O2182       O  0.90678099  0.28303866  0.97519108    -0.82400
C2183       C  0.89757199  0.28472436  0.99359490     0.98100
O2184       O  0.89052125  0.31100157  0.00143174    -0.82400
O2185       O  0.94585319  0.34912147  0.00216137    -0.85100
C2186       C  0.96612859  0.36924333  0.99623480     1.02700
O2187       O  0.96319010  0.38208457  0.97866359    -0.77800
O2188       O  0.97142901  0.33300082  0.95202623    -0.78000
C2189       C  0.96539801  0.30630696  0.94442821     1.02600
O2190       O  0.88079509  0.33821752  0.92939248    -0.85300
O2191       O  0.85028528  0.32009610  0.96525976    -0.82400
C2192       C  0.83934976  0.34351277  0.97531072     0.98200
O2193       O  0.85761614  0.36295485  0.98368778    -0.82400
O2194       O  0.90762210  0.40105417  0.98757049    -0.85000
C2195       C  0.90321926  0.41674101  0.97121035     1.02600
O2196       O  0.91194610  0.40581216  0.95389775    -0.77800
O2197       O  0.92708970  0.35978970  0.92370753    -0.78000
C2198       C  0.90017960  0.35104836  0.91710999     1.02600
Cr2199     Cr  0.89487243  0.31265861  0.95326864     1.93700
Cr2200     Cr  0.90154827  0.35486819  0.99167867     1.93200
Cr2201     Cr  0.94113975  0.36852852  0.95294612     1.39100
O2202       O  0.91244493  0.34501960  0.96596513    -1.23100
O2203       O  0.58879128  0.21827329  0.95566006    -0.85300
O2204       O  0.64254520  0.21199636  0.98062344    -0.82400
C2205       C  0.62894213  0.21287359  0.99791757     0.98100
O2206       O  0.61036923  0.19083915  0.00323270    -0.82400
O2207       O  0.57352613  0.13541693  0.00117471    -0.85100
C2208       C  0.54651711  0.13823039  0.99277922     1.02700
O2209       O  0.54429363  0.14843510  0.97454955    -0.77800
O2210       O  0.55855619  0.18301775  0.94032012    -0.78000
C2211       C  0.56290046  0.21105983  0.94671472     1.02600
O2212       O  0.61910972  0.18106245  0.92555315    -0.85300
O2213       O  0.66802483  0.16668223  0.95353021    -0.82400
C2214       C  0.68049102  0.15666792  0.97007751     0.98200
O2215       O  0.66446718  0.15558045  0.98674213    -0.82400
O2216       O  0.62641364  0.10439081  0.98229310    -0.85000
C2217       C  0.60824557  0.08663731  0.97213685     1.02600
O2218       O  0.58535641  0.09768068  0.96165727    -0.77800
O2219       O  0.60333243  0.13254765  0.92734991    -0.78000
C2220       C  0.61600505  0.15458816  0.91714420     1.02600
Cr2221     Cr  0.62789574  0.19191259  0.95467969     1.93700
Cr2222     Cr  0.61758465  0.14787623  0.99136423     1.93200
Cr2223     Cr  0.57556875  0.14184515  0.95203246     1.39100
O2224       O  0.60685222  0.16010896  0.96607956    -1.23100
O2225       O  0.92338967  0.20655323  0.54643573    -0.85300
O2226       O  0.87336051  0.20851823  0.51900935    -0.82400
C2227       C  0.88865495  0.21070080  0.50216043     0.98100
O2228       O  0.90477703  0.18782564  0.49548999    -0.82400
O2229       O  0.93313326  0.12813575  0.49379361    -0.85100
C2230       C  0.96071592  0.12994854  0.50137685     1.02700
O2231       O  0.96413041  0.13579004  0.52020652    -0.77800
O2232       O  0.95306222  0.16604893  0.55613206    -0.78000
C2233       C  0.94937103  0.19568386  0.55348777     1.02600
O2234       O  0.88980004  0.16597210  0.57259250    -0.85300
O2235       O  0.84099790  0.15863310  0.54213897    -0.82400
C2236       C  0.82919471  0.15447207  0.52434737     0.98200
O2237       O  0.84657010  0.15882072  0.50859800    -0.82400
O2238       O  0.87586031  0.10347884  0.51100796    -0.85000
C2239       C  0.89081720  0.08140609  0.51932245     1.02600
O2240       O  0.91603119  0.08702416  0.52972236    -0.77800
O2241       O  0.90518624  0.11790382  0.56668015    -0.78000
C2242       C  0.89652329  0.13890337  0.57911375     1.02600
Cr2243     Cr  0.88298521  0.18232777  0.54402741     1.93700
Cr2244     Cr  0.89140350  0.14519230  0.50430970     1.93200
Cr2245     Cr  0.93216334  0.12838163  0.54225947     1.39100
O2246       O  0.90275137  0.15194699  0.53024811    -1.23100
O2247       O  0.82537452  0.44919767  0.44005641    -0.85300
O2248       O  0.85520652  0.46618307  0.47530070    -0.82400
C2249       C  0.86503396  0.46458901  0.49348889     0.98100
O2250       O  0.86806771  0.43841034  0.50242391    -0.82400
O2251       O  0.81032493  0.40418248  0.50325654    -0.85100
C2252       C  0.78825851  0.38621365  0.49722649     1.02700
O2253       O  0.79134447  0.37050945  0.48070443    -0.77800
O2254       O  0.78787876  0.41633150  0.45085231    -0.78000
C2255       C  0.79596625  0.44277511  0.44347204     1.02600
O2256       O  0.88039634  0.40653147  0.43200585    -0.85300
O2257       O  0.90905297  0.42499838  0.46727512    -0.82400
C2258       C  0.91810817  0.40199533  0.47839116     0.98200
O2259       O  0.89841072  0.38426870  0.48728573    -0.82400
O2260       O  0.84555214  0.34921777  0.49193610    -0.85000
C2261       C  0.85209620  0.33255141  0.47642626     1.02600
O2262       O  0.84473779  0.34219977  0.45859670    -0.77800
O2263       O  0.83449462  0.38458904  0.42612146    -0.78000
C2264       C  0.86231118  0.39181108  0.42011090     1.02600
Cr2265     Cr  0.86575826  0.43422183  0.45456588     1.93700
Cr2266     Cr  0.85452265  0.39503622  0.49415289     1.93200
Cr2267     Cr  0.81690072  0.37999365  0.45501847     1.39100
O2268       O  0.84555814  0.40365420  0.46792709    -1.23100
O2269       O  0.67174805  0.02969240  0.44477127    -0.85300
O2270       O  0.62258247  0.02829843  0.47317911    -0.82400
C2271       C  0.63606120  0.02523487  0.49051117     0.98100
O2272       O  0.65400467  0.04679645  0.49732686    -0.82400
O2273       O  0.68547181  0.10613950  0.49915354    -0.85100
C2274       C  0.71289177  0.10465857  0.49117929     1.02700
O2275       O  0.71626436  0.09497208  0.47300680    -0.77800
O2276       O  0.70336252  0.06893236  0.43553029    -0.78000
C2277       C  0.69832454  0.03964982  0.43788428     1.02600
O2278       O  0.63763310  0.07502290  0.42105635    -0.85300
O2279       O  0.59158805  0.08005889  0.45197883    -0.82400
C2280       C  0.58067882  0.08549910  0.46985785     0.98200
O2281       O  0.59746977  0.07895158  0.48534969    -0.82400
O2282       O  0.63015579  0.13421911  0.48231498    -0.85000
C2283       C  0.64871832  0.15438525  0.47455553     1.02600
O2284       O  0.67370996  0.14644302  0.46482453    -0.77800
O2285       O  0.65953082  0.12064899  0.42754235    -0.78000
C2286       C  0.64452316  0.10273018  0.41565149     1.02600
Cr2287     Cr  0.63249423  0.05541120  0.44874515     1.93700
Cr2288     Cr  0.64302346  0.09076384  0.48898156     1.93200
Cr2289     Cr  0.68558156  0.10587450  0.45110988     1.39100
O2290       O  0.65410232  0.08401973  0.46286128    -1.23100
O2291       O  0.58310412  0.27712392  0.55103904    -0.85300
O2292       O  0.63527831  0.28088827  0.52544941    -0.82400
C2293       C  0.62243532  0.27608274  0.50819542     0.98100
O2294       O  0.60373488  0.29651828  0.50054230    -0.82400
O2295       O  0.56726484  0.35447449  0.49762721    -0.85100
C2296       C  0.54004788  0.35059004  0.50570401     1.02700
O2297       O  0.53807125  0.33753787  0.52301851    -0.77800
O2298       O  0.54997029  0.31419041  0.56095722    -0.78000
C2299       C  0.55572774  0.28527740  0.55754100     1.02600
O2300       O  0.61101727  0.32379874  0.57704826    -0.85300
O2301       O  0.65989252  0.33403069  0.54780845    -0.82400
C2302       C  0.67145322  0.34084963  0.53021621     0.98200
O2303       O  0.65645129  0.33294941  0.51417711    -0.82400
O2304       O  0.61982782  0.38568268  0.51560103    -0.85000
C2305       C  0.59990035  0.40465046  0.52322455     1.02600
O2306       O  0.57440854  0.39463962  0.53170682    -0.77800
O2307       O  0.58999893  0.36895628  0.56890067    -0.78000
C2308       C  0.60312804  0.35135590  0.58197681     1.02600
Cr2309     Cr  0.62085928  0.30601386  0.54935607     1.93700
Cr2310     Cr  0.61060257  0.34140466  0.50874228     1.93200
Cr2311     Cr  0.56547872  0.35246965  0.54537140     1.39100
O2312       O  0.59881634  0.33344707  0.53454856    -1.23100
O2313       O  0.93426629  0.45293282  0.31708123    -0.85300
O2314       O  0.90553890  0.46814325  0.28136391    -0.82400
C2315       C  0.89561141  0.46709794  0.26320929     0.98100
O2316       O  0.89581286  0.44130137  0.25368276    -0.82400
O2317       O  0.95948447  0.41636946  0.25404454    -0.85100
C2318       C  0.98225279  0.39860310  0.25952689     1.02700
O2319       O  0.98017540  0.38226904  0.27594609    -0.77800
O2320       O  0.97511248  0.42314920  0.30808300    -0.78000
C2321       C  0.96427530  0.44899479  0.31497957     1.02600
O2322       O  0.88428771  0.40429164  0.32302927    -0.85300
O2323       O  0.85746872  0.41890374  0.28701507    -0.82400
C2324       C  0.85224897  0.39395338  0.27665768     0.98200
O2325       O  0.87420346  0.38101878  0.26645375    -0.82400
O2326       O  0.93296091  0.35631775  0.26084610    -0.85000
C2327       C  0.92675167  0.33548630  0.27401057     1.02600
O2328       O  0.92900930  0.34286078  0.29298245    -0.77800
O2329       O  0.93037537  0.38250217  0.32873266    -0.78000
C2330       C  0.90245411  0.38930380  0.33471016     1.02600
Cr2331     Cr  0.89749426  0.43380849  0.30109388     1.93700
Cr2332     Cr  0.91614871  0.39984471  0.26090055     1.93200
Cr2333     Cr  0.95130901  0.38411644  0.30063910     1.39100
O2334       O  0.92179416  0.40643625  0.28772102    -1.23100
O2335       O  0.68773273  0.30254528  0.19131079    -0.85300
O2336       O  0.65355427  0.28860236  0.22537191    -0.82400
C2337       C  0.64377553  0.29003730  0.24361602     0.98100
O2338       O  0.64431439  0.31576526  0.25315749    -0.82400
O2339       O  0.70636481  0.34249697  0.25466374    -0.85100
C2340       C  0.72967861  0.36000282  0.24985865     1.02700
O2341       O  0.72921978  0.37616811  0.23343750    -0.77800
O2342       O  0.72785315  0.33110754  0.20315559    -0.78000
C2343       C  0.71741096  0.30586500  0.19520220     1.02600
O2344       O  0.64001588  0.35176254  0.18197185    -0.85300
O2345       O  0.60624333  0.33766964  0.21671354    -0.82400
C2346       C  0.60047575  0.36151233  0.22803334     0.98200
O2347       O  0.62240389  0.37421007  0.23824613    -0.82400
O2348       O  0.67875557  0.40153791  0.24451458    -0.85000
C2349       C  0.67598692  0.42111659  0.22996850     1.02600
O2350       O  0.68111046  0.41214729  0.21162236    -0.77800
O2351       O  0.68841379  0.36992801  0.17844846    -0.78000
C2352       C  0.66109863  0.36486921  0.17121996     1.02600
Cr2353     Cr  0.64883399  0.32245142  0.20495474     1.93700
Cr2354     Cr  0.66378791  0.35735316  0.24551909     1.93200
Cr2355     Cr  0.70402825  0.37081978  0.20746662     1.39100
O2356       O  0.67217055  0.34969186  0.21920439    -1.23100
O2357       O  0.58574002  0.05363708  0.31154731    -0.85300
O2358       O  0.61874042  0.04033242  0.27703488    -0.82400
C2359       C  0.62908010  0.04184232  0.25891484     0.94900
O2360       O  0.63062088  0.06791542  0.24961716    -0.82400
O2361       O  0.56898006  0.09299897  0.24713838    -0.85100
C2362       C  0.54430656  0.10843369  0.25180386     1.02700
O2363       O  0.54344776  0.12488062  0.26809046    -0.77800
O2364       O  0.54521852  0.07917377  0.29780123    -0.78000
C2365       C  0.55617473  0.05512163  0.30689144     1.02600
O2366       O  0.63255174  0.10444390  0.31942875    -0.85300
O2367       O  0.66656984  0.08866477  0.28489990    -0.82400
C2368       C  0.67333075  0.11304416  0.27417566     0.98200
O2369       O  0.65178827  0.12738240  0.26460399    -0.82400
O2370       O  0.59404028  0.15316804  0.25843508    -0.85000
C2371       C  0.59554556  0.17177077  0.27360049     1.02600
O2372       O  0.58968937  0.16157565  0.29158343    -0.77800
O2373       O  0.58276618  0.11724418  0.32384296    -0.78000
C2374       C  0.61053198  0.11408466  0.33094584     1.02600
Cr2375     Cr  0.62421389  0.07387564  0.29724212     1.93700
Cr2376     Cr  0.61049369  0.10938128  0.25692369     1.93200
Cr2377     Cr  0.56784765  0.11962886  0.29452258     1.39100
O2378       O  0.60090459  0.10055021  0.28293124    -1.23100
O2379       O  0.84185223  0.21452935  0.19726520    -0.85300
O2380       O  0.89501650  0.21031241  0.22191609    -0.82400
C2381       C  0.88322044  0.21545934  0.23964889     0.98100
O2382       O  0.86462094  0.19524940  0.24767474    -0.82400
O2383       O  0.82631451  0.13935682  0.25093647    -0.85100
C2384       C  0.79853326  0.14273880  0.24375407     1.02700
O2385       O  0.79458644  0.14983311  0.22509897    -0.77800
O2386       O  0.80680160  0.17825119  0.18829601    -0.78000
C2387       C  0.81407207  0.20713325  0.19135929     1.02600
O2388       O  0.86736465  0.16902246  0.16963169    -0.85300
O2389       O  0.91680039  0.15685299  0.19815584    -0.82400
C2390       C  0.92917812  0.14951157  0.21529458     0.98200
O2391       O  0.91537565  0.15691979  0.23197237    -0.82400
O2392       O  0.87736760  0.10594473  0.23246509    -0.85000
C2393       C  0.85797097  0.08660786  0.22500214     1.02600
O2394       O  0.83375345  0.09572307  0.21484248    -0.77800
O2395       O  0.84729940  0.12334702  0.17733382    -0.78000
C2396       C  0.85902630  0.14176844  0.16408965     1.02600
Cr2397     Cr  0.87870467  0.18543463  0.19786487     1.93700
Cr2398     Cr  0.86947143  0.15026519  0.23870032     1.93200
Cr2399     Cr  0.82338592  0.13835255  0.20214956     1.39100
O2400       O  0.85664195  0.15803128  0.21300981    -1.23100
C2401       C  0.95823134  0.10603304  0.23105329    -0.12200
C2402       C  0.95905999  0.13154142  0.21724258     0.04800
C2403       C  0.98884313  0.14366174  0.21090715    -0.07500
C2404       C  0.51807561  0.13586565  0.22304365    -0.08300
C2405       C  0.51758536  0.11104262  0.23738566    -0.02800
C2406       C  0.98573906  0.09575023  0.24096376     0.04000
N2407       N  0.98265826  0.07388753  0.25762916     0.66500
H2408       H  0.93555162  0.09632844  0.23608868     0.15400
H2409       H  0.54002341  0.14887610  0.22036622     0.15100
N2410       N  0.99090021  0.16942581  0.19676727     0.74200
O2411       O  0.97471626  0.08408914  0.27516609    -0.39300
O2412       O  0.48487873  0.04163515  0.24986684    -0.39200
O2413       O  0.99443741  0.19699961  0.20360443    -0.39900
O2414       O  0.49698338  0.17165967  0.18249634    -0.40000
C2415       C  0.73195785  0.10218111  0.27383818    -0.12200
C2416       C  0.70697891  0.12371999  0.27103060     0.04800
C2417       C  0.71454923  0.15393879  0.26283995    -0.07500
C2418       C  0.74546137  0.16036916  0.25566222    -0.08300
C2419       C  0.76962113  0.13776390  0.25669440    -0.02800
C2420       C  0.76302911  0.10890745  0.26681555     0.04000
N2421       N  0.78657322  0.08485985  0.26842534     0.66500
H2422       H  0.72702407  0.07908491  0.28027748     0.15400
H2423       H  0.75022361  0.18284542  0.24826326     0.15100
N2424       N  0.69133770  0.17849667  0.26133377     0.74200
O2425       O  0.80108940  0.08165641  0.28530701    -0.39300
O2426       O  0.78514780  0.06177880  0.25624331    -0.39200
O2427       O  0.69547461  0.20315448  0.27180328    -0.39900
O2428       O  0.67398417  0.17995809  0.24550930    -0.40000
C2429       C  0.77342325  0.28795947  0.18903035    -0.12200
C2430       C  0.74093917  0.28002481  0.19082323     0.04800
C2431       C  0.73267361  0.24764482  0.19058129    -0.07500
C2432       C  0.75670237  0.22445057  0.18939168    -0.08300
C2433       C  0.78933199  0.23247967  0.18885372    -0.02800
C2434       C  0.79738050  0.26491539  0.18818106     0.04000
N2435       N  0.82983520  0.27522186  0.18735262     0.66500
H2436       H  0.78058908  0.31251293  0.18899017     0.15400
H2437       H  0.74969926  0.19988214  0.19016430     0.15100
N2438       N  0.70039665  0.23761439  0.19343832     0.74200
O2439       O  0.84186033  0.28286437  0.17017739    -0.39300
O2440       O  0.84297487  0.28460230  0.20369011    -0.39200
O2441       O  0.68477873  0.22807646  0.17808153    -0.39900
O2442       O  0.69085836  0.23050865  0.21134367    -0.40000
C2443       C  0.63477813  0.25302280  0.27353610    -0.12200
C2444       C  0.62910296  0.26170664  0.25292851     0.04800
C2445       C  0.60838246  0.24315974  0.24097862    -0.07500
C2446       C  0.59574679  0.21550929  0.24901628    -0.08300
C2447       C  0.60349764  0.20501267  0.26887223    -0.02800
C2448       C  0.62219683  0.22467465  0.28161731     0.04000
N2449       N  0.62939392  0.21594963  0.30237787     0.66500
H2450       H  0.64993684  0.26760004  0.28309836     0.15400
H2451       H  0.58043313  0.20146516  0.23918760     0.15100
N2452       N  0.59906986  0.25251533  0.22070674     0.74200
O2453       O  0.65443618  0.20054447  0.30616059    -0.39300
O2454       O  0.61490654  0.22942408  0.31698628    -0.39200
O2455       O  0.61255285  0.24015860  0.20529166    -0.39900
O2456       O  0.57264431  0.26620447  0.21835927    -0.40000
C2457       C  0.67149968  0.46157862  0.25687360    -0.12200
C2458       C  0.66759463  0.45385900  0.23600070     0.04800
C2459       C  0.65328380  0.47642270  0.22295155    -0.07500
C2460       C  0.64172656  0.50480765  0.23120540    -0.08300
C2461       C  0.64130443  0.01279556  0.24949895    -0.02800
C2462       C  0.65866905  0.99158325  0.26170312     0.04000
N2463       N  0.66914622  0.99959873  0.28199933     0.66500
H2464       H  0.68207523  0.44495872  0.26759934     0.15400
H2465       H  0.62927962  0.52131600  0.22124337     0.15100
N2466       N  0.64791492  0.47025095  0.20176730     0.74200
O2467       O  0.65598620  0.98679870  0.29742692    -0.39300
O2468       O  0.69590827  0.01282238  0.28417034    -0.39200
O2469       O  0.66341502  0.48612749  0.18863661    -0.39900
O2470       O  0.62141406  0.45850610  0.19675911    -0.40000
C2471       C  0.52088449  0.46888011  0.31945378    -0.12200
C2472       C  0.98747812  0.47553384  0.31919223     0.04800
C2473       C  0.97591624  0.01082626  0.31177291    -0.07500
C2474       C  0.99851973  0.03532485  0.31157846    -0.08300
C2475       C  0.53348955  0.02862989  0.31157066    -0.02800
C2476       C  0.54362222  0.49339824  0.31830301     0.04000
N2477       N  0.57665587  0.48527833  0.31866007     0.66500
H2478       H  0.52922242  0.44491178  0.32118578     0.15400
H2479       H  0.98999210  0.05936455  0.31060899     0.15100
N2480       N  0.94311111  0.01893595  0.30951969     0.74200
O2481       O  0.59025086  0.48161165  0.33581820    -0.39300
O2482       O  0.58929032  0.47378464  0.30267497    -0.39200
O2483       O  0.92762854  0.02793943  0.32516058    -0.39900
O2484       O  0.93305398  0.02602356  0.29180633    -0.40000
C2485       C  0.50972123  0.37351543  0.22946162    -0.12200
C2486       C  0.00854469  0.39046428  0.24537698     0.04800
C2487       C  0.03151308  0.41217698  0.23835543    -0.07500
C2488       C  0.56494897  0.39848508  0.24640570    -0.08300
C2489       C  0.56787424  0.37478866  0.23134000    -0.02800
C2490       C  0.53968548  0.36357643  0.22193577     0.04000
N2491       N  0.54082077  0.34197799  0.20512515     0.66500
H2492       H  0.48817606  0.36352003  0.22301525     0.15400
H2493       H  0.58583619  0.40864164  0.25365794     0.15100
N2494       N  0.02792648  0.44518281  0.24181099     0.74200
O2495       O  0.54280495  0.35270356  0.18700032    -0.39300
O2496       O  0.53110514  0.31414250  0.20784235    -0.39200
O2497       O  0.04288943  0.45788906  0.25644747    -0.39900
O2498       O  0.01734687  0.46227357  0.22744663    -0.40000
C2499       C  0.79407522  0.40178212  0.27847393    -0.12200
C2500       C  0.81948718  0.38121666  0.27507844     0.04800
C2501       C  0.81279017  0.35023484  0.26815810    -0.07500
C2502       C  0.78170833  0.34200061  0.26244012    -0.08300
C2503       C  0.75722875  0.36413802  0.26341005    -0.02800
C2504       C  0.76329859  0.39376119  0.27240554     0.04000
N2505       N  0.73934075  0.41744000  0.27348959     0.66500
H2506       H  0.79838188  0.42541054  0.28414638     0.15400
H2507       H  0.77736447  0.31918964  0.25548905     0.15100
N2508       N  0.83727235  0.32729289  0.26566633     0.74200
O2509       O  0.72440824  0.42092772  0.29027163    -0.39300
O2510       O  0.74117806  0.44035500  0.26109934    -0.39200
O2511       O  0.84161121  0.30755590  0.27995247    -0.39900
O2512       O  0.84613827  0.32045437  0.24762471    -0.40000
C2513       C  0.85660987  0.04722560  0.25232317    -0.12200
C2514       C  0.86217799  0.05357432  0.23148083     0.04800
C2515       C  0.87686135  0.03033885  0.21918340    -0.07500
C2516       C  0.88553957  0.00121949  0.22804932    -0.08300
C2517       C  0.88228801  0.49588220  0.25356238    -0.02800
C2518       C  0.86423891  0.01822555  0.26106227     0.04000
N2519       N  0.85845153  0.51322052  0.28685993     0.66500
H2520       H  0.84700074  0.06545066  0.26212719     0.15400
H2521       H  0.89803814  0.48410073  0.22272999     0.15100
N2522       N  0.88550187  0.03683053  0.19828851     0.74200
O2523       O  0.86771968  0.02744419  0.29632316    -0.39300
O2524       O  0.83430566  0.49666801  0.29124035    -0.39200
O2525       O  0.91332323  0.04656120  0.19425406    -0.39900
O2526       O  0.86846864  0.02608593  0.18393773    -0.40000
C2527       C  0.90120764  0.27044911  0.23697224    -0.12200
C2528       C  0.89271402  0.24551801  0.25001660     0.04800
C2529       C  0.89680593  0.24964488  0.27153188    -0.07500
C2530       C  0.90839978  0.27867936  0.27933438    -0.08300
C2531       C  0.91659398  0.30376215  0.26602903    -0.02800
C2532       C  0.91321668  0.29876097  0.24441290     0.04000
N2533       N  0.92137335  0.32223387  0.22938644     0.66500
H2534       H  0.89891846  0.26795092  0.22040810     0.15400
H2535       H  0.91108075  0.28151374  0.29583596     0.15100
N2536       N  0.89149792  0.22417216  0.28553368     0.74200
O2537       O  0.94842946  0.32119653  0.22078414    -0.39300
O2538       O  0.89945965  0.33818299  0.22111200    -0.39200
O2539       O  0.91485034  0.20732469  0.29088654    -0.39900
O2540       O  0.86623106  0.22357691  0.29619218    -0.40000
C2541       C  0.60324179  0.10730321  0.38892412    -0.12200
C2542       C  0.63471709  0.11326894  0.39496689     0.04800
C2543       C  0.65680749  0.12469625  0.38027883    -0.07500
C2544       C  0.64790609  0.12679984  0.35949938    -0.08300
C2545       C  0.61695183  0.11854756  0.35317888    -0.02800
C2546       C  0.59404914  0.11022651  0.36832202     0.04000
N2547       N  0.56216979  0.10172043  0.36289801     0.66500
H2548       H  0.58598139  0.09880444  0.40016049     0.15400
H2549       H  0.66569601  0.13360643  0.34812814     0.15100
N2550       N  0.68894819  0.13186272  0.38586494     0.74200
O2551       O  0.55521436  0.07303823  0.36051206    -0.39300
O2552       O  0.54003724  0.12151787  0.36532170    -0.39200
O2553       O  0.71049809  0.11160381  0.38292636    -0.39900
O2554       O  0.69674148  0.16018269  0.38890273    -0.40000
C2555       C  0.61123411  0.23460881  0.48189878    -0.12200
C2556       C  0.63111023  0.24668041  0.49734895     0.04800
C2557       C  0.65860453  0.22921990  0.50322379    -0.07500
C2558       C  0.66450764  0.19998287  0.49446258    -0.08300
C2559       C  0.64383443  0.18738466  0.47992071    -0.02800
C2560       C  0.61733904  0.20497066  0.47322568     0.04000
N2561       N  0.59677384  0.19326380  0.45751653     0.66500
H2562       H  0.59038500  0.24770348  0.47699867     0.15400
H2563       H  0.68472244  0.18629876  0.49984333     0.15100
N2564       N  0.68052048  0.24021707  0.51846787     0.74200
O2565       O  0.56936939  0.18327108  0.46235014    -0.39300
O2566       O  0.60275834  0.19999660  0.43893378    -0.39200
O2567       O  0.67815499  0.23000619  0.53671247    -0.39900
O2568       O  0.70615271  0.25330389  0.51275686    -0.40000
C2569       C  0.59200983  0.49109086  0.50948056    -0.12200
C2570       C  0.62660097  0.99773511  0.50309453     0.04800
C2571       C  0.64724025  0.48021697  0.51769775    -0.07500
C2572       C  0.63844180  0.44934582  0.52317568    -0.08300
C2573       C  0.60666522  0.43883881  0.52133287    -0.02800
C2574       C  0.58298484  0.46069827  0.51561267     0.04000
N2575       N  0.55012560  0.45181544  0.51423466     0.66500
H2576       H  0.57664759  0.00546480  0.49645980     0.15400
H2577       H  0.65680895  0.43310424  0.52822870     0.15100
N2578       N  0.68171167  0.98526602  0.51381089     0.74200
O2579       O  0.53150664  0.45825936  0.52897968    -0.39300
O2580       O  0.53853346  0.44506996  0.49687196    -0.39200
O2581       O  0.69280927  0.99445493  0.53082035    -0.39900
O2582       O  0.69919921  0.48419679  0.50522023    -0.40000
C2583       C  0.85015548  0.38253451  0.38292110    -0.12200
C2584       C  0.87306350  0.38520608  0.39855410     0.04800
C2585       C  0.90577808  0.38432106  0.39287015    -0.07500
C2586       C  0.91469739  0.38277650  0.37200747    -0.08300
C2587       C  0.89178729  0.38281471  0.35630470    -0.02800
C2588       C  0.85908164  0.38163219  0.36202164     0.04000
N2589       N  0.83447458  0.38023575  0.34685446     0.66500
H2590       H  0.82494896  0.38278399  0.38682986     0.15400
H2591       H  0.93988708  0.38362962  0.36808219     0.15100
N2592       N  0.93044391  0.38578119  0.40797853     0.74200
O2593       O  0.82341414  0.35374602  0.34173488    -0.39300
O2594       O  0.81864379  0.40474775  0.34282768    -0.39200
O2595       O  0.94463283  0.36076514  0.41307146    -0.39900
O2596       O  0.94332568  0.41197548  0.41186096    -0.40000
C2597       C  0.78013968  0.00030846  0.43437530    -0.12200
C2598       C  0.77097702  0.46769078  0.44071548     0.04800
C2599       C  0.73961758  0.46132155  0.43363007    -0.07500
C2600       C  0.71546374  0.48431993  0.43544307    -0.08300
C2601       C  0.72420923  0.01664602  0.43303986    -0.02800
C2602       C  0.75695885  0.02414181  0.43541643     0.04000
N2603       N  0.76709527  0.05538173  0.44021860     0.66500
H2604       H  0.80466920  0.00614951  0.43805680     0.15400
H2605       H  0.69164296  0.47894237  0.42999817     0.15100
N2606       N  0.73228321  0.43264373  0.42318379     0.74200
O2607       O  0.77112790  0.06294576  0.45881531    -0.39300
O2608       O  0.77934222  0.07221299  0.42619139    -0.39200
O2609       O  0.74113898  0.42970188  0.40466827    -0.39900
O2610       O  0.70952025  0.41580778  0.42969921    -0.40000
C2611       C  0.75929109  0.36454686  0.52795599    -0.12200
C2612       C  0.75882194  0.38195173  0.50945470     0.04800
C2613       C  0.72937074  0.38991679  0.50070324    -0.07500
C2614       C  0.70118872  0.37948725  0.50981508    -0.08300
C2615       C  0.70137813  0.35889166  0.52679757    -0.02800
C2616       C  0.73073807  0.35245354  0.53654835     0.04000
N2617       N  0.73247260  0.33106881  0.55352769     0.66500
H2618       H  0.78198480  0.35780744  0.53462459     0.15400
H2619       H  0.67898552  0.38482035  0.50201553     0.15100
N2620       N  0.72776676  0.40410221  0.48078107     0.74200
O2621       O  0.73782403  0.30230692  0.55010864    -0.39300
O2622       O  0.73657624  0.34178666  0.57144591    -0.39200
O2623       O  0.72604475  0.38640672  0.46523914    -0.39900
O2624       O  0.71984471  0.43264016  0.47913269    -0.40000
C2625       C  0.97104592  0.37957609  0.46868807    -0.12200
C2626       C  0.95189351  0.39596484  0.48289316     0.04800
C2627       C  0.96233632  0.39908758  0.50338882    -0.07500
C2628       C  0.49029347  0.37883231  0.51272057    -0.08300
C2629       C  0.51107755  0.36657730  0.49773497    -0.02800
C2630       C  0.50400598  0.37186097  0.47668894     0.04000
N2631       N  0.52493991  0.36124669  0.46073408     0.66500
H2632       H  0.96266558  0.37612978  0.45306005     0.15400
H2633       H  0.49582579  0.37660895  0.52899254     0.15100
N2634       N  0.94321924  0.41459392  0.51859441     0.74200
O2635       O  0.51971712  0.33496924  0.45235184    -0.39300
O2636       O  0.54254572  0.38102706  0.45159037    -0.39200
O2637       O  0.92501258  0.39833338  0.52996427    -0.39900
O2638       O  0.95085813  0.44197008  0.52426627    -0.40000
C2639       C  0.50785957  0.20773179  0.55965726    -0.12200
C2640       C  0.97653308  0.21780027  0.55774469     0.04800
C2641       C  0.97182687  0.25034832  0.56120196    -0.07500
C2642       C  0.49764754  0.27232292  0.56251745    -0.08300
C2643       C  0.52928168  0.26153245  0.56042730    -0.02800
C2644       C  0.53420807  0.22858035  0.55956952     0.04000
N2645       N  0.56574960  0.21586943  0.55828682     0.66500
H2646       H  0.51226138  0.18271734  0.55889144     0.15400
H2647       H  0.99330474  0.29598719  0.56326297     0.15100
N2648       N  0.94082239  0.26280049  0.56545581     0.74200
O2649       O  0.58348385  0.21610620  0.57396112    -0.39300
O2650       O  0.57744512  0.20886766  0.54092843    -0.39200
O2651       O  0.93239927  0.26657878  0.58398986    -0.39900
O2652       O  0.92629370  0.27767120  0.55150577    -0.40000
C2653       C  0.55036131  0.12523062  0.48881664    -0.12200
C2654       C  0.54982653  0.10129674  0.47399580     0.04800
C2655       C  0.52007408  0.09059194  0.46675833    -0.07500
C2656       C  0.98947529  0.09810515  0.47460547    -0.08300
C2657       C  0.98944738  0.12352623  0.48851349    -0.02800
C2658       C  0.52246494  0.13690271  0.49764125     0.04000
N2659       N  0.52530767  0.16007794  0.51342006     0.66500
H2660       H  0.57295529  0.13403925  0.49453307     0.15400
H2661       H  0.96759005  0.08504049  0.47199635     0.15100
N2662       N  0.51815156  0.06588235  0.45195821     0.74200
O2663       O  0.53623606  0.15175627  0.53068241    -0.39300
O2664       O  0.52629534  0.18879703  0.50838138    -0.39200
O2665       O  0.51358090  0.03800378  0.45809692    -0.39900
O2666       O  0.51292330  0.07273606  0.43333821    -0.40000
C2667       C  0.75029025  0.10912300  0.52153340    -0.12200
C2668       C  0.74047314  0.11897493  0.50180405     0.04800
C2669       C  0.75661880  0.14418795  0.49224493    -0.07500
C2670       C  0.78281121  0.15784856  0.50177165    -0.08300
C2671       C  0.79534344  0.14589467  0.52020533    -0.02800
C2672       C  0.77813260  0.12187689  0.53062108     0.04000
N2673       N  0.78979213  0.10841011  0.54932243     0.66500
H2674       H  0.73759245  0.09018100  0.52926809     0.15400
H2675       H  0.79500127  0.17678435  0.49376784     0.15100
N2676       N  0.74710211  0.15603109  0.47254803     0.74200
O2677       O  0.77712047  0.11630033  0.56621794    -0.39300
O2678       O  0.80644694  0.08368796  0.54856072    -0.39200
O2679       O  0.73298649  0.18221802  0.47155321    -0.39900
O2680       O  0.76002104  0.14503237  0.45649578    -0.40000
C2681       C  0.89591512  0.02227270  0.52187386    -0.12200
C2682       C  0.87858467  0.04887344  0.51539239     0.04800
C2683       C  0.85025015  0.04385867  0.50367899    -0.07500
C2684       C  0.84167628  0.01366676  0.49760205    -0.08300
C2685       C  0.87589855  0.49348632  0.50355944    -0.02800
C2686       C  0.90447196  0.50816264  0.49711343     0.04000
N2687       N  0.92401073  0.49435064  0.48143422     0.66500
H2688       H  0.91721604  0.02516294  0.53109118     0.15400
H2689       H  0.82097211  0.01076002  0.48777973     0.15100
N2690       N  0.83060274  0.06901738  0.49640328     0.74200
O2691       O  0.91712384  0.49814500  0.46267117    -0.39300
O2692       O  0.94740526  0.47726954  0.48633258    -0.39200
O2693       O  0.83782002  0.08224643  0.47955761    -0.39900
O2694       O  0.80206195  0.07027388  0.50258706    -0.40000
C2695       C  0.89999113  0.26668960  0.50049728    -0.12200
C2696       C  0.88668794  0.24052419  0.49089807     0.04800
C2697       C  0.86549224  0.24487169  0.47429455    -0.07500
C2698       C  0.85629876  0.27542777  0.46860924    -0.08300
C2699       C  0.86706075  0.30154096  0.47977009    -0.02800
C2700       C  0.89011844  0.29701708  0.49541744     0.04000
N2701       N  0.90290820  0.32263941  0.50699462     0.66500
H2702       H  0.91636572  0.26339856  0.51322779     0.15400
H2703       H  0.83874537  0.27851650  0.45652631     0.15100
N2704       N  0.85060755  0.21867917  0.46447925     0.74200
O2705       O  0.88891220  0.33089450  0.52338361    -0.39300
O2706       O  0.93196932  0.32966351  0.50459774    -0.39200
O2707       O  0.82172340  0.21275408  0.46848168    -0.39900
O2708       O  0.86283906  0.20782021  0.44817677    -0.40000
C2709       C  0.54554158  0.26734121  0.94873665    -0.12200
C2710       C  0.53778519  0.23600231  0.94388440     0.04800
C2711       C  0.00864849  0.22827097  0.93529226    -0.07500
C2712       C  0.98511516  0.25197672  0.93545511    -0.08300
C2713       C  0.99206442  0.28296373  0.94165696    -0.02800
C2714       C  0.52263987  0.29143606  0.94852228     0.04000
N2715       N  0.53281067  0.32255752  0.95366019     0.66500
H2716       H  0.56972578  0.27337751  0.95313886     0.15400
H2717       H  0.96089523  0.24567194  0.93129719     0.15100
N2718       N  0.99944769  0.19719584  0.92936535     0.74200
O2719       O  0.53529560  0.33013848  0.97238459    -0.39300
O2720       O  0.54664932  0.33908450  0.94010064    -0.39200
O2721       O  0.98535683  0.17972269  0.94229385    -0.39900
O2722       O  0.99795331  0.19052687  0.91044492    -0.40000
C2723       C  0.64754023  0.40743920  0.12068034    -0.12200
C2724       C  0.65105929  0.38285849  0.10645678     0.04800
C2725       C  0.65454974  0.35174910  0.11405742    -0.07500
C2726       C  0.65642968  0.34637432  0.13536323    -0.08300
C2727       C  0.65495670  0.37140076  0.14932637    -0.02800
C2728       C  0.64966086  0.40198932  0.14184052     0.04000
N2729       N  0.64701984  0.42812642  0.15535218     0.66500
H2730       H  0.64458123  0.43151878  0.11541472     0.15400
H2731       H  0.66001832  0.32256806  0.14100601     0.15100
N2732       N  0.65634662  0.32535314  0.10052305     0.74200
O2733       O  0.67162228  0.44458371  0.15837365    -0.39300
O2734       O  0.61989396  0.44055231  0.15763877    -0.39200
O2735       O  0.68294258  0.31212647  0.09761421    -0.39900
O2736       O  0.63106125  0.31066843  0.09617956    -0.40000
C2737       C  0.53672358  0.37628022  0.03548571    -0.12200
C2738       C  0.55128926  0.40419704  0.02846563     0.04800
C2739       C  0.53453471  0.42318043  0.01437523    -0.07500
C2740       C  0.00482475  0.41058935  0.00449496    -0.08300
C2741       C  0.99229494  0.38094005  0.00958691    -0.02800
C2742       C  0.50797904  0.36534178  0.02659621     0.04000
N2743       N  0.49482211  0.33605618  0.03344352     0.66500
H2744       H  0.54884826  0.36180707  0.04675488     0.15400
H2745       H  0.99350268  0.42519920  0.99289213     0.15100
N2746       N  0.54615416  0.45345365  0.00840068     0.74200
O2747       O  0.50171651  0.31104168  0.02396677    -0.39300
O2748       O  0.48200984  0.33435913  0.05106206    -0.39200
O2749       O  0.55872620  0.45671011  0.99080186    -0.39900
O2750       O  0.53490561  0.47734591  0.01738700    -0.40000
C2751       C  0.79594317  0.33955552  0.00019561    -0.12200
C2752       C  0.80519771  0.34752378  0.98015974     0.04800
C2753       C  0.78545509  0.36767559  0.96853826    -0.07500
C2754       C  0.75675299  0.37936190  0.97719374    -0.08300
C2755       C  0.74810704  0.37188739  0.99766366    -0.02800
C2756       C  0.76788875  0.35112364  0.00895264     0.04000
N2757       N  0.76053536  0.34222341  0.02972657     0.66500
H2758       H  0.81210654  0.32642938  0.00989882     0.15400
H2759       H  0.74218248  0.39551561  0.96835896     0.15100
N2760       N  0.79585469  0.37860057  0.94876254     0.74200
O2761       O  0.74832181  0.31552253  0.03307629    -0.39300
O2762       O  0.77454539  0.35609751  0.04429458    -0.39200
O2763       O  0.79434766  0.36032882  0.93349092    -0.39900
O2764       O  0.81293810  0.40305160  0.94757562    -0.40000
C2765       C  0.67271970  0.28215538  0.02007519    -0.12200
C2766       C  0.64739239  0.30256691  0.02424715     0.04800
C2767       C  0.61588804  0.29056619  0.02387584    -0.07500
C2768       C  0.61022810  0.25949457  0.01748016    -0.08300
C2769       C  0.63555285  0.24033600  0.01110438    -0.02800
C2770       C  0.66716314  0.25148502  0.01332383     0.04000
N2771       N  0.69392183  0.23302139  0.00701340     0.66500
H2772       H  0.69704442  0.29078898  0.02030477     0.15400
H2773       H  0.58583235  0.25129660  0.01586411     0.15100
N2774       N  0.58930352  0.30986882  0.02919261     0.74200
O2775       O  0.70722885  0.23935670  0.99001052    -0.39300
O2776       O  0.70938604  0.21801519  0.02048523    -0.39200
O2777       O  0.57315398  0.32226349  0.01495726    -0.39900
O2778       O  0.57729861  0.30742805  0.04700818    -0.40000
C2779       C  0.63767221  0.03549367  0.96729949    -0.12200
C2780       C  0.61158672  0.05230904  0.97536739     0.04800
C2781       C  0.59302469  0.03832207  0.99081994    -0.07500
C2782       C  0.60268966  0.01014256  0.99981400    -0.08300
C2783       C  0.63023997  0.49469514  0.99654973    -0.02800
C2784       C  0.64571086  0.50763919  0.97902887     0.04000
N2785       N  0.67324690  0.49300407  0.97029153     0.66500
H2786       H  0.65128727  0.04549193  0.95481401     0.15400
H2787       H  0.58863933  0.00125921  0.01255173     0.15100
N2788       N  0.56461977  0.05321690  0.99803776     0.74200
O2789       O  0.67016703  0.47638850  0.95432678    -0.39300
O2790       O  0.70060802  0.50285321  0.97518429    -0.39200
O2791       O  0.54010250  0.05330301  0.98683462    -0.39900
O2792       O  0.56446740  0.06761456  0.01502283    -0.40000
C2793       C  0.86258723  0.14355454  0.10495477    -0.12200
C2794       C  0.86499041  0.11146469  0.09977639     0.04800
C2795       C  0.86654915  0.08936489  0.11619668    -0.07500
C2796       C  0.86504462  0.09965630  0.13689370    -0.08300
C2797       C  0.86210298  0.13178506  0.14193169    -0.02800
C2798       C  0.86101074  0.15377995  0.12551600     0.04000
N2799       N  0.85600435  0.18654287  0.12927823     0.66500
H2800       H  0.86095229  0.16113802  0.09284027     0.15400
H2801       H  0.86577573  0.08222208  0.14914165     0.15100
N2802       N  0.86804019  0.05630345  0.11229635     0.74200
O2803       O  0.87951680  0.20512485  0.12863969    -0.39300
O2804       O  0.82810457  0.19757190  0.12809796    -0.39200
O2805       O  0.89423128  0.04210412  0.11460660    -0.39900
O2806       O  0.84248510  0.04054858  0.11186127    -0.40000
C2807       C  0.72342562  0.00829189  0.04887021    -0.12200
C2808       C  0.73272246  0.47683676  0.06304242     0.04800
C2809       C  0.76531587  0.46809180  0.06349895    -0.07500
C2810       C  0.78923780  0.49128704  0.06397691    -0.08300
C2811       C  0.77845018  0.02446237  0.05482290    -0.02800
C2812       C  0.74773213  0.03074331  0.04698055     0.04000
N2813       N  0.74190248  0.05763411  0.03432942     0.66500
H2814       H  0.70062797  0.01353907  0.04179381     0.15400
H2815       H  0.81394643  0.48372147  0.06377173     0.15100
N2816       N  0.77489984  0.43593917  0.06169281     0.74200
O2817       O  0.74362708  0.05436382  0.01504708    -0.39300
O2818       O  0.72618061  0.08039522  0.04160355    -0.39200
O2819       O  0.78225428  0.42528391  0.04416344    -0.39900
O2820       O  0.78347600  0.42111037  0.07761090    -0.40000
C2821       C  0.73826132  0.16915466  0.97422131    -0.12200
C2822       C  0.71421104  0.14673840  0.97094174     0.04800
C2823       C  0.72178075  0.11458531  0.97329448    -0.07500
C2824       C  0.75174833  0.10562079  0.98035199    -0.08300
C2825       C  0.77423748  0.12804565  0.98591730    -0.02800
C2826       C  0.76827153  0.16007893  0.98172485     0.04000
N2827       N  0.79146693  0.18346820  0.98673153     0.66500
H2828       H  0.73301503  0.19435634  0.97216967     0.15400
H2829       H  0.75702887  0.08054478  0.98245543     0.15100
N2830       N  0.69873138  0.09069526  0.96973002     0.74200
O2831       O  0.81505742  0.18782680  0.97488737    -0.39300
O2832       O  0.79166147  0.19521073  0.00457609    -0.39200
O2833       O  0.69952830  0.07664982  0.95262765    -0.39900
O2834       O  0.68656569  0.07694155  0.98515163    -0.40000
C2835       C  0.98063090  0.10881973  0.02805918    -0.12200
C2836       C  0.96108386  0.09263211  0.01402131     0.04800
C2837       C  0.97108104  0.09128425  0.99308999    -0.07500
C2838       C  0.99737455  0.10849963  0.98635577    -0.08300
C2839       C  0.51723867  0.12459949  0.00243835    -0.02800
C2840       C  0.50964021  0.12430930  0.02378594     0.04000
N2841       N  0.52901859  0.14068231  0.03828447     0.66500
H2842       H  0.97353356  0.11038231  0.04412143     0.15400
H2843       H  0.50372836  0.10609335  0.97281175     0.15100
N2844       N  0.95560217  0.07143209  0.97838938     0.74200
O2845       O  0.52213232  0.16873623  0.04286391    -0.39300
O2846       O  0.54683575  0.12507008  0.05014435    -0.39200
O2847       O  0.93932990  0.08370406  0.96415015    -0.39900
O2848       O  0.96455769  0.04319000  0.97666689    -0.40000
C2849       C  0.88448046  0.00449360  0.96905623    -0.12200
C2850       C  0.86228374  0.00534434  0.98533027     0.04800
C2851       C  0.84935998  0.47823118  0.99340509    -0.07500
C2852       C  0.85986778  0.44955434  0.98526056    -0.08300
C2853       C  0.88813701  0.44788036  0.97350429    -0.02800
C2854       C  0.90431172  0.47591579  0.96834235     0.04000
N2855       N  0.93341396  0.47528825  0.95678188     0.66500
H2856       H  0.89577947  0.02608888  0.96385696     0.15400
H2857       H  0.84707828  0.42818385  0.98928470     0.15100
N2858       N  0.82219387  0.47884357  0.00673890     0.74200
O2859       O  0.91206661  0.98012834  0.92710924    -0.39300
O2860       O  0.95958518  0.47207027  0.96610872    -0.39200
O2861       O  0.79765588  0.99183836  0.00470702    -0.39900
O2862       O  0.82540363  0.47082471  0.02532981    -0.40000
C2863       C  0.86139863  0.21673113  0.02368651    -0.12200
C2864       C  0.88200050  0.19227525  0.01787444     0.04800
C2865       C  0.91083825  0.20015812  0.00754634    -0.07500
C2866       C  0.91655397  0.23120628  0.00142999    -0.08300
C2867       C  0.89421933  0.25497848  0.00528338    -0.02800
C2868       C  0.86696538  0.24778118  0.01730319     0.04000
N2869       N  0.84233593  0.27033431  0.02064929     0.66500
H2870       H  0.83937832  0.21150889  0.03187941     0.15400
H2871       H  0.93799881  0.23645588  0.99258735     0.15100
N2872       N  0.93442924  0.17708103  0.00267649     0.74200
O2873       O  0.81773979  0.26883608  0.00953477    -0.39300
O2874       O  0.84044574  0.28361035  0.03799483    -0.39200
O2875       O  0.93609947  0.16648325  0.98454028    -0.39900
O2876       O  0.95836702  0.17463882  0.01427186    -0.40000
C2877       C  0.85894322  0.35359775  0.88941722    -0.12200
C2878       C  0.89139250  0.35450269  0.89487332     0.04800
C2879       C  0.91440143  0.35617462  0.87882483    -0.07500
C2880       C  0.90465734  0.35645905  0.85812101    -0.08300
C2881       C  0.87224863  0.35481317  0.85270364    -0.02800
C2882       C  0.84923777  0.35350708  0.86871867     0.04000
N2883       N  0.81607595  0.34946249  0.86437446     0.66500
H2884       H  0.84080456  0.35188356  0.90133793     0.15400
H2885       H  0.92279184  0.35712742  0.84614355     0.15100
N2886       N  0.94782766  0.35531749  0.88305594     0.74200
O2887       O  0.80500784  0.32195884  0.86252408    -0.39300
O2888       O  0.79712165  0.37207122  0.86740397    -0.39200
O2889       O  0.96247229  0.32944739  0.88163515    -0.39900
O2890       O  0.96358057  0.38066073  0.88264943    -0.40000
C2891       C  0.63185530  0.12510565  0.86173374    -0.12200
C2892       C  0.64560336  0.15221331  0.85289458     0.04800
C2893       C  0.65117428  0.17856366  0.86564482    -0.07500
C2894       C  0.64214280  0.17781355  0.88632480    -0.08300
C2895       C  0.62682834  0.15151411  0.89517976    -0.02800
C2896       C  0.62219837  0.12460368  0.88264963     0.04000
N2897       N  0.60675275  0.09707924  0.89051479     0.66500
H2898       H  0.62722142  0.10474792  0.85215886     0.15400
H2899       H  0.64684975  0.19867937  0.89540801     0.15100
N2900       N  0.66591972  0.20665068  0.85788147     0.74200
O2901       O  0.57703244  0.09399876  0.88814242    -0.39300
O2902       O  0.62332965  0.07316238  0.89478419    -0.39200
O2903       O  0.64892684  0.23068038  0.85465321    -0.39900
O2904       O  0.69577940  0.20982271  0.85933392    -0.40000
C2905       C  0.74238013  0.29029120  0.80230231    -0.12200
C2906       C  0.77402530  0.28112562  0.80631468     0.04800
C2907       C  0.77996099  0.24889590  0.81040596    -0.07500
C2908       C  0.75514993  0.22680714  0.80899133    -0.08300
C2909       C  0.72403821  0.23580049  0.80362580    -0.02800
C2910       C  0.71760411  0.26824769  0.80095299     0.04000
N2911       N  0.68611450  0.27949787  0.79690034     0.66500
H2912       H  0.73672038  0.31485650  0.79956180     0.15400
H2913       H  0.76074201  0.20214250  0.81139539     0.15100
N2914       N  0.81121563  0.23752906  0.81478101     0.74200
O2915       O  0.67846417  0.28648137  0.77865669    -0.39300
O2916       O  0.66944111  0.28979228  0.81166304    -0.39200
O2917       O  0.81965447  0.23484903  0.83335496    -0.39900
O2918       O  0.82530026  0.22135194  0.80124991    -0.40000
C2919       C  0.61793616  0.35311805  0.63984702    -0.12200
C2920       C  0.60728491  0.38340815  0.64470126     0.04800
C2921       C  0.59781234  0.40390253  0.62871939    -0.07500
C2922       C  0.59793487  0.39332244  0.60835682    -0.08300
C2923       C  0.60739884  0.36250730  0.60343290    -0.02800
C2924       C  0.61850190  0.34259979  0.61945253     0.04000
N2925       N  0.63002402  0.31152881  0.61549314     0.66500
H2926       H  0.62575287  0.33738315  0.65203162     0.15400
H2927       H  0.58943529  0.40914244  0.59642794     0.15100
N2928       N  0.58562369  0.43464072  0.63298587     0.74200
O2929       O  0.65963431  0.30725536  0.61318885    -0.39300
O2930       O  0.61224817  0.28821685  0.61937411    -0.39200
O2931       O  0.60259004  0.45840813  0.62879343    -0.39900
O2932       O  0.55599219  0.43814222  0.63572369    -0.40000
C2933       C  0.96964960  0.38403887  0.77643791    -0.12200
C2934       C  0.95815962  0.35426069  0.77057440     0.04800
C2935       C  0.97839610  0.33411067  0.75924102    -0.07500
C2936       C  0.50800356  0.34597913  0.75217890    -0.08300
C2937       C  0.51976080  0.37578628  0.75748235    -0.02800
C2938       C  0.99991743  0.39463393  0.77009939     0.04000
N2939       N  0.01100443  0.42467758  0.77684200     0.66500
H2940       H  0.95447934  0.39966590  0.78534832     0.15400
H2941       H  0.52132003  0.33134363  0.74148692     0.15100
N2942       N  0.96816778  0.30351758  0.75295813     0.74200
O2943       O  0.00072648  0.44927623  0.76820309    -0.39300
O2944       O  0.52867423  0.42491432  0.79560643    -0.39200
O2945       O  0.95556262  0.30026692  0.73545855    -0.39900
O2946       O  0.98010343  0.27974062  0.76170341    -0.40000
C2947       C  0.75817486  0.41013926  0.74161871    -0.12200
C2948       C  0.77021153  0.37997251  0.73751295     0.04800
C2949       C  0.75630328  0.36244588  0.72131938    -0.07500
C2950       C  0.72789039  0.37337157  0.71207790    -0.08300
C2951       C  0.71354208  0.40147931  0.71870616    -0.02800
C2952       C  0.73033994  0.42093446  0.73243912     0.04000
N2953       N  0.71810203  0.45091305  0.73850959     0.66500
H2954       H  0.76957542  0.42514255  0.75293625     0.15400
H2955       H  0.71577738  0.35876373  0.70091855     0.15100
N2956       N  0.76956138  0.33313414  0.71478654     0.74200
O2957       O  0.70392394  0.45334955  0.75563917    -0.39300
O2958       O  0.72923394  0.47536323  0.73001535    -0.39200
O2959       O  0.75900475  0.30776545  0.72237661    -0.39900
O2960       O  0.78586916  0.33227495  0.69838689    -0.40000
C2961       C  0.58934281  0.27991103  0.72697028    -0.12200
C2962       C  0.61472001  0.30098192  0.72400923     0.04800
C2963       C  0.64636478  0.28931858  0.72470264    -0.07500
C2964       C  0.65206389  0.25820712  0.73074304    -0.08300
C2965       C  0.62675444  0.23857050  0.73640578    -0.02800
C2966       C  0.59508529  0.24893078  0.73331172     0.04000
N2967       N  0.56845822  0.22881106  0.73752311     0.66500
H2968       H  0.56487885  0.28808038  0.72596134     0.15400
H2969       H  0.67648279  0.25032425  0.73274798     0.15100
N2970       N  0.67312604  0.30894790  0.72009854     0.74200
O2971       O  0.55357915  0.23174961  0.75436366    -0.39300
O2972       O  0.55503270  0.21492365  0.72272487    -0.39200
O2973       O  0.68878917  0.32065386  0.73478328    -0.39900
O2974       O  0.68609452  0.30674051  0.70256540    -0.40000
C2975       C  0.64205517  0.01704769  0.73906765    -0.12200
C2976       C  0.63796825  0.49156446  0.75354177     0.04800
C2977       C  0.62983169  0.50064018  0.77388450    -0.07500
C2978       C  0.64716657  0.02872715  0.78122130    -0.08300
C2979       C  0.65488930  0.05262511  0.76697781    -0.02800
C2980       C  0.65274982  0.04608491  0.74568888     0.04000
N2981       N  0.66077073  0.06903709  0.73029301     0.66500
H2982       H  0.64009767  0.01344122  0.72255569     0.15400
H2983       H  0.64800393  0.03361858  0.79760686     0.15100
N2984       N  0.61001254  0.48121633  0.78662173     0.74200
O2985       O  0.68667196  0.06598354  0.72051068    -0.39300
O2986       O  0.63865608  0.08494206  0.72221366    -0.39200
O2987       O  0.62249661  0.46538599  0.80096189    -0.39900
O2988       O  0.58017179  0.48524614  0.78653798    -0.40000
C2989       C  0.92180992  0.14205065  0.63504545    -0.12200
C2990       C  0.90096350  0.12041736  0.64447651     0.04800
C2991       C  0.87719592  0.10590562  0.63219401    -0.07500
C2992       C  0.87607472  0.11188366  0.61085457    -0.08300
C2993       C  0.89737645  0.13311825  0.60158415    -0.02800
C2994       C  0.91992216  0.14881276  0.61398223     0.04000
N2995       N  0.94184361  0.17108441  0.60532909     0.66500
H2996       H  0.93996857  0.15383323  0.64406096     0.15400
H2997       H  0.85829384  0.10011534  0.60152774     0.15100
N2998       N  0.85419545  0.08487826  0.64097605     0.74200
O2999       O  0.93557640  0.20007550  0.60659764    -0.39300
O3000       O  0.97016468  0.16262485  0.60163828    -0.39200
O3001       O  0.82699233  0.09530352  0.64584441    -0.39900
O3002       O  0.85818985  0.05555339  0.63925925    -0.40000
C3003       C  0.54755698  0.01402531  0.69394891    -0.12200
C3004       C  0.53566106  0.48089544  0.68918600     0.04800
C3005       C  0.99953174  0.46809002  0.68437269    -0.07500
C3006       C  0.97758041  0.49310687  0.68414263    -0.08300
C3007       C  0.99098311  0.03457329  0.68801468    -0.02800
C3008       C  0.52530794  0.03876242  0.69387527     0.04000
N3009       N  0.53665046  0.06975503  0.69828149     0.66500
H3010       H  0.57209701  0.01945185  0.69785843     0.15400
H3011       H  0.95230481  0.48774421  0.68455266     0.15100
N3012       N  0.98756654  0.43654601  0.68451089     0.74200
O3013       O  0.54087868  0.07771827  0.71679844    -0.39300
O3014       O  0.55006417  0.08541474  0.68411689    -0.39200
O3015       O  0.98022798  0.42366845  0.70144291    -0.39900
O3016       O  0.97759531  0.42467828  0.66792250    -0.40000
C3017       C  0.87278571  0.50561186  0.77203653    -0.12200
C3018       C  0.87847118  0.00560234  0.74690767     0.04800
C3019       C  0.90795491  0.47606503  0.74942876    -0.07500
C3020       C  0.89813566  0.44848630  0.75916277    -0.08300
C3021       C  0.87336702  0.44855054  0.77377632    -0.02800
C3022       C  0.86161530  0.47752033  0.78102056     0.04000
N3023       N  0.83588530  0.47882114  0.79550762     0.66500
H3024       H  0.89166716  0.01663391  0.77823666     0.15400
H3025       H  0.90782116  0.42636079  0.75364455     0.15100
N3026       N  0.85956994  0.98816589  0.71250428     0.74200
O3027       O  0.84180275  0.48506171  0.81410917    -0.39300
O3028       O  0.80772574  0.48185284  0.78896495    -0.39200
O3029       O  0.87919468  0.97535737  0.70032419    -0.39900
O3030       O  0.83297224  0.99718529  0.70563794    -0.40000
C3031       C  0.90700277  0.20899972  0.75131311    -0.12200
C3032       C  0.90438847  0.20146869  0.73037312     0.04800
C3033       C  0.89189042  0.22421784  0.71666312    -0.07500
C3034       C  0.88099831  0.25320880  0.72452815    -0.08300
C3035       C  0.88279131  0.25951059  0.74575550    -0.02800
C3036       C  0.89740224  0.23761300  0.75895583     0.04000
N3037       N  0.90350614  0.24418809  0.78023085     0.66500
H3038       H  0.91630376  0.19229384  0.76233710     0.15400
H3039       H  0.87032367  0.27031020  0.71421762     0.15100
N3040       N  0.88850314  0.21782897  0.69518472     0.74200
O3041       O  0.88742069  0.23003847  0.79387145    -0.39300
O3042       O  0.93013661  0.25572972  0.78515360    -0.39200
O3043       O  0.86203725  0.20803199  0.68853991    -0.39900
O3044       O  0.90861729  0.22910051  0.68262890    -0.40000
C3045       C  0.51864998  0.09853810  0.76475087    -0.12200
C3046       C  0.99614410  0.11832949  0.76173472     0.04800
C3047       C  0.50118570  0.15283509  0.76764918    -0.07500
C3048       C  0.53011539  0.16073593  0.77676342    -0.08300
C3049       C  0.55435525  0.13844621  0.77826760    -0.02800
C3050       C  0.54798997  0.10668389  0.77338046     0.04000
N3051       N  0.57174809  0.08288538  0.77566580     0.66500
H3052       H  0.51459606  0.07451991  0.75969783     0.15400
H3053       H  0.53481661  0.18515126  0.78064186     0.15100
N3054       N  0.97565333  0.17084304  0.77163915     0.74200
O3055       O  0.57510717  0.06988718  0.79303945    -0.39300
O3056       O  0.58202939  0.06901786  0.75979291    -0.39200
O3057       O  0.95891713  0.17337386  0.78778306    -0.39900
O3058       O  0.97746004  0.19392162  0.75938389    -0.40000
C3059       C  0.80265919  0.14448208  0.73116741    -0.12200
C3060       C  0.80842315  0.11289865  0.72561100     0.04800
C3061       C  0.78334071  0.09099790  0.72742880    -0.07500
C3062       C  0.75384495  0.10047291  0.73584694    -0.08300
C3063       C  0.74887881  0.13163856  0.74251142    -0.02800
C3064       C  0.77357743  0.15376281  0.73994454     0.04000
N3065       N  0.77035541  0.18523350  0.74742307     0.66500
H3066       H  0.82168329  0.16168404  0.73008117     0.15400
H3067       H  0.73577367  0.08297678  0.73866458     0.15100
N3068       N  0.78849798  0.05849984  0.72291734     0.74200
O3069       O  0.77931800  0.19152665  0.76549912    -0.39300
O3070       O  0.76613545  0.20743078  0.73475875    -0.39200
O3071       O  0.80032312  0.04067122  0.73647556    -0.39900
O3072       O  0.78631281  0.04900486  0.70456287    -0.40000
O3073       O  0.93494127  0.54548747  0.68708976    -0.85300
O3074       O  0.90778583  0.53160335  0.72405991    -0.82400
C3075       C  0.89843385  0.53381088  0.74241600     0.98100
O3076       O  0.89074687  0.56037998  0.74944976    -0.82400
O3077       O  0.95048162  0.58855155  0.75160972    -0.85100
C3078       C  0.97494205  0.60343007  0.74571414     1.02700
O3079       O  0.97504112  0.61890760  0.72889373    -0.77800
O3080       O  0.97441657  0.57476480  0.69850222    -0.78000
C3081       C  0.96456809  0.54985946  0.69006046     1.02600
O3082       O  0.88425830  0.58969785  0.67892071    -0.85300
O3083       O  0.85427853  0.57453754  0.71577611    -0.82400
C3084       C  0.84614232  0.60010506  0.72464424     0.98200
O3085       O  0.86682548  0.61787164  0.73239820    -0.82400
O3086       O  0.92352179  0.64636291  0.73951765    -0.85000
C3087       C  0.92251631  0.66511126  0.72445451     1.02600
O3088       O  0.92684163  0.65482210  0.70643791    -0.77800
O3089       O  0.93130284  0.61166319  0.67449213    -0.78000
C3090       C  0.90388499  0.60467134  0.66784844     1.02600
Cr3091     Cr  0.89682213  0.56266588  0.70248776     1.93700
Cr3092     Cr  0.90855484  0.60232407  0.74116954     1.93200
Cr3093     Cr  0.94948626  0.61360840  0.70292491     1.39100
O3094       O  0.91835118  0.59267750  0.71531249    -1.23100
O3095       O  0.59009573  0.96368100  0.70007140    -0.85300
O3096       O  0.64152532  0.95685089  0.72622057    -0.82400
C3097       C  0.62754671  0.96191384  0.74322574     0.98100
O3098       O  0.60904414  0.94118925  0.75075902    -0.82400
O3099       O  0.57067219  0.88565626  0.75131686    -0.85100
C3100       C  0.54341574  0.89070945  0.74377279     1.02700
O3101       O  0.54062403  0.90075193  0.72564871    -0.77800
O3102       O  0.55560068  0.92842982  0.68905396    -0.78000
C3103       C  0.56272534  0.95694117  0.69294509     1.02600
O3104       O  0.61733482  0.91904500  0.67272642    -0.85300
O3105       O  0.66506219  0.90501260  0.70223108    -0.82400
C3106       C  0.67631699  0.89709377  0.71964084     0.98200
O3107       O  0.66096930  0.90367961  0.73588904    -0.82400
O3108       O  0.62271693  0.85258453  0.73283332    -0.85000
C3109       C  0.60272637  0.83452255  0.72450573     1.02600
O3110       O  0.57805837  0.84539950  0.71568925    -0.77800
O3111       O  0.59552750  0.87369240  0.67947928    -0.78000
C3112       C  0.60861025  0.89218984  0.66684369     1.02600
Cr3113     Cr  0.62689506  0.93402841  0.70128431     1.93700
Cr3114     Cr  0.61462490  0.89674672  0.74082000     1.93200
Cr3115     Cr  0.57012036  0.88848384  0.70333190     1.39100
O3116       O  0.60340346  0.90648780  0.71519304    -1.23100
O3117       O  0.67895812  0.71381423  0.79615931    -0.85300
O3118       O  0.62008130  0.70668451  0.77338180    -0.82400
C3119       C  0.63278878  0.71284753  0.75645587     0.98100
O3120       O  0.65519969  0.69556145  0.75046644    -0.82400
O3121       O  0.70271271  0.65181123  0.74946969    -0.85100
C3122       C  0.72596780  0.63905739  0.75854828     1.02700
O3123       O  0.72415836  0.63117448  0.77728123    -0.77800
O3124       O  0.71189160  0.67612141  0.80785678    -0.78000
C3125       C  0.70605519  0.70509189  0.80319384     1.02600
O3126       O  0.65224413  0.67862435  0.82660888    -0.85300
O3127       O  0.60372053  0.65700527  0.79792013    -0.82400
C3128       C  0.59354939  0.64501263  0.78110699     0.98200
O3129       O  0.60988017  0.64570055  0.76434156    -0.82400
O3130       O  0.65870416  0.60358852  0.76031201    -0.85000
C3131       C  0.66415631  0.58376422  0.77436854     1.02600
O3132       O  0.67392776  0.59218717  0.79189422    -0.77800
O3133       O  0.66363704  0.62967283  0.82433097    -0.78000
C3134       C  0.65546869  0.65255816  0.83512427     1.02600
Cr3135     Cr  0.64089956  0.68612442  0.79734608     1.93700
Cr3136     Cr  0.65694740  0.64992112  0.75826669     1.93200
Cr3137     Cr  0.69130797  0.63452543  0.79935757     1.39100
O3138       O  0.66351313  0.65641543  0.78478181    -1.23100
O3139       O  0.83610371  0.79533828  0.80750343    -0.85300
O3140       O  0.86903987  0.78201992  0.77322687    -0.82400
C3141       C  0.87942535  0.78372569  0.75516946     0.98100
O3142       O  0.87978697  0.80968090  0.74579708    -0.82400
O3143       O  0.81784721  0.83672441  0.74450866    -0.85100
C3144       C  0.79384368  0.85268668  0.75011839     1.02700
O3145       O  0.79503431  0.86952166  0.76621358    -0.77800
O3146       O  0.79653616  0.82474758  0.79594953    -0.78000
C3147       C  0.80655411  0.79918172  0.80352810     1.02600
O3148       O  0.88477243  0.84397880  0.81660045    -0.85300
O3149       O  0.91787235  0.82926882  0.78169336    -0.82400
C3150       C  0.92456930  0.85333186  0.77069193     0.98200
O3151       O  0.90310417  0.86738604  0.76067285    -0.82400
O3152       O  0.84588754  0.89542524  0.75497260    -0.85000
C3153       C  0.84821367  0.91484364  0.76960469     1.02600
O3154       O  0.84369784  0.90540665  0.78796771    -0.77800
O3155       O  0.83659174  0.86159319  0.82122058    -0.78000
C3156       C  0.86396053  0.85567570  0.82821899     1.02600
Cr3157     Cr  0.87511623  0.81500742  0.79374278     1.93700
Cr3158     Cr  0.86080434  0.85126938  0.75357700     1.93200
Cr3159     Cr  0.82075189  0.86398051  0.79200841     1.39100
O3160       O  0.85233672  0.84303513  0.77987157    -1.23100
O3161       O  0.83407925  0.53580517  0.05088391    -0.85300
O3162       O  0.88000180  0.53270291  0.02077084    -0.82400
C3163       C  0.86412555  0.53259678  0.00408160     0.98100
O3164       O  0.84818680  0.55640490  0.99870774    -0.82400
O3165       O  0.82309692  0.61753867  0.99916648    -0.85100
C3166       C  0.79600486  0.61386920  0.00718275     1.02700
O3167       O  0.79343515  0.60496776  0.02555711    -0.77800
O3168       O  0.80530897  0.57602146  0.06169352    -0.78000
C3169       C  0.80851805  0.54652242  0.05866956     1.02600
O3170       O  0.87154985  0.57632037  0.07565786    -0.85300
O3171       O  0.91718169  0.58102370  0.04244981    -0.82400
C3172       C  0.92732542  0.58499031  0.02412794     0.98200
O3173       O  0.90825842  0.58143627  0.00941034    -0.82400
O3174       O  0.88198554  0.63905190  0.01464458    -0.85000
C3175       C  0.86592914  0.66075636  0.02273337     1.02600
O3176       O  0.84083633  0.65427849  0.03323526    -0.77800
O3177       O  0.85422641  0.62385677  0.06981493    -0.78000
C3178       C  0.86488697  0.60361099  0.08217821     1.02600
Cr3179     Cr  0.87462523  0.55895170  0.04658972     1.93700
Cr3180     Cr  0.86432904  0.59791415  0.00760998     1.93200
Cr3181     Cr  0.82577976  0.61314636  0.04665432     1.39100
O3182       O  0.85458185  0.59002473  0.03379019    -1.23100
O3183       O  0.67607935  0.96271609  0.04946364    -0.85300
O3184       O  0.62651623  0.96204785  0.02264055    -0.82400
C3185       C  0.63930762  0.96520522  0.00500817     0.98100
O3186       O  0.65672685  0.94329676  0.99783623    -0.82400
O3187       O  0.69006716  0.88391534  0.99738196    -0.85100
C3188       C  0.71758879  0.88680722  0.00503555     1.02700
O3189       O  0.72073416  0.89817081  0.02272914    -0.77800
O3190       O  0.70872309  0.92539678  0.05968564    -0.78000
C3191       C  0.70315629  0.95426734  0.05599996     1.02600
O3192       O  0.64452420  0.91851095  0.07557128    -0.85300
O3193       O  0.59634218  0.91191735  0.04534546    -0.82400
C3194       C  0.58391698  0.90855760  0.02769794     0.98200
O3195       O  0.60114897  0.91028701  0.01167735    -0.82400
O3196       O  0.63493088  0.85615515  0.01594453    -0.85000
C3197       C  0.65316473  0.83672811  0.02469511     1.02600
O3198       O  0.67930463  0.84556470  0.03263069    -0.77800
O3199       O  0.66561129  0.87276842  0.06913458    -0.78000
C3200       C  0.65313025  0.89156053  0.08163806     1.02600
Cr3201     Cr  0.63737306  0.93638862  0.04736514     1.93700
Cr3202     Cr  0.64711560  0.89925121  0.00767041     1.93200
Cr3203     Cr  0.69095764  0.88717597  0.04511238     1.39100
O3204       O  0.65874729  0.90759564  0.03342343    -1.23100
O3205       O  0.93396112  0.79899436  0.93790214    -0.85300
O3206       O  0.90141420  0.78319805  0.97266832    -0.82400
C3207       C  0.89247530  0.78538578  0.99114442     0.98100
O3208       O  0.88762785  0.81207573  0.99913897    -0.82400
O3209       O  0.94383603  0.84991129  0.99959315    -0.85100
C3210       C  0.96428971  0.86991545  0.99363545     1.02700
O3211       O  0.96113664  0.88289410  0.97615124    -0.77800
O3212       O  0.96894934  0.83272054  0.95029535    -0.78000
C3213       C  0.96254716  0.80577475  0.94317138     1.02600
O3214       O  0.87922566  0.83990121  0.92660228    -0.85300
O3215       O  0.84738922  0.82221605  0.96183638    -0.82400
C3216       C  0.83692719  0.84531409  0.97231143     0.98200
O3217       O  0.85540839  0.86404631  0.98118672    -0.82400
O3218       O  0.90579098  0.90180009  0.98441490    -0.85000
C3219       C  0.90063603  0.91696189  0.96790673     1.02600
O3220       O  0.91008064  0.90603885  0.95076214    -0.77800
O3221       O  0.92620268  0.85986145  0.92128630    -0.78000
C3222       C  0.89893273  0.85284441  0.91460052     1.02600
Cr3223     Cr  0.89189889  0.81364291  0.95058098     1.93700
Cr3224     Cr  0.89933703  0.85575588  0.98909890     1.93200
Cr3225     Cr  0.93928170  0.86870589  0.95052092     1.39100
O3226       O  0.91010539  0.84553722  0.96347302    -1.23100
O3227       O  0.58754938  0.71776954  0.95712828    -0.85300
O3228       O  0.63906304  0.71073454  0.98452979    -0.82400
C3229       C  0.62400450  0.71298074  0.00119335     0.98100
O3230       O  0.60311212  0.69279881  0.00582449    -0.82400
O3231       O  0.56544363  0.63911530  0.00395565    -0.85100
C3232       C  0.53976385  0.63896641  0.99406337     1.02700
O3233       O  0.53918749  0.64512171  0.97502624    -0.77800
O3234       O  0.55718147  0.68167648  0.94234168    -0.78000
C3235       C  0.56171630  0.71002389  0.94812269     1.02600
O3236       O  0.62052716  0.67968233  0.92909316    -0.85300
O3237       O  0.66518345  0.66284378  0.96003607    -0.82400
C3238       C  0.67448491  0.65267433  0.97749291     0.98200
O3239       O  0.65680307  0.65512530  0.99322789    -0.82400
O3240       O  0.61823586  0.60475524  0.98878500    -0.85000
C3241       C  0.60408239  0.58660446  0.97653096     1.02600
O3242       O  0.58392781  0.59667835  0.96363374    -0.77800
O3243       O  0.60323102  0.63177671  0.93058665    -0.78000
C3244       C  0.61703230  0.65336967  0.92071392     1.02600
Cr3245     Cr  0.62613414  0.69017827  0.95853283     1.93700
Cr3246     Cr  0.60998644  0.64908761  0.99571519     1.93200
Cr3247     Cr  0.57343822  0.64050768  0.95414515     1.39100
O3248       O  0.60272976  0.65954678  0.96953703    -1.23100
O3249       O  0.91764245  0.71347377  0.55003585    -0.85300
O3250       O  0.86682136  0.71165773  0.52360020    -0.82400
C3251       C  0.87959490  0.71472545  0.50605900     0.98100
O3252       O  0.89936954  0.69430785  0.49975875    -0.82400
O3253       O  0.93497362  0.63733950  0.49865867    -0.85100
C3254       C  0.96216085  0.64085597  0.50661224     1.02700
O3255       O  0.96444909  0.64860631  0.52523165    -0.77800
O3256       O  0.94916743  0.67609300  0.56156504    -0.78000
C3257       C  0.94454708  0.70483651  0.55684998     1.02600
O3258       O  0.88633587  0.66990636  0.57683573    -0.85300
O3259       O  0.83817484  0.66084101  0.54603228    -0.82400
C3260       C  0.82733627  0.65593254  0.52801132     0.98200
O3261       O  0.84561978  0.65858051  0.51256739    -0.82400
O3262       O  0.88050505  0.60575936  0.51515379    -0.85000
C3263       C  0.89892954  0.58627478  0.52357184     1.02600
O3264       O  0.92309505  0.59531419  0.53372767    -0.77800
O3265       O  0.90564608  0.62348426  0.57022436    -0.78000
C3266       C  0.89374176  0.64265709  0.58285024     1.02600
Cr3267     Cr  0.87894341  0.68651972  0.54827332     1.93700
Cr3268     Cr  0.89133256  0.64980483  0.50861625     1.93200
Cr3269     Cr  0.93293402  0.63742988  0.54680915     1.39100
O3270       O  0.90126886  0.65772764  0.53459015    -1.23100
O3271       O  0.82519182  0.94869748  0.43348696    -0.85300
O3272       O  0.84738644  0.96153825  0.47178122    -0.82400
C3273       C  0.85521708  0.95881342  0.49036765     0.98100
O3274       O  0.86002664  0.93190840  0.49796884    -0.82400
O3275       O  0.80098724  0.90151857  0.49506988    -0.85100
C3276       C  0.77863620  0.88508711  0.48785828     1.02700
O3277       O  0.78194776  0.87070665  0.47076217    -0.77800
O3278       O  0.78492192  0.91752852  0.44180975    -0.78000
C3279       C  0.79520273  0.94348264  0.43488796     1.02600
O3280       O  0.87949236  0.90521280  0.42833824    -0.85300
O3281       O  0.90287114  0.92058102  0.46630331    -0.82400
C3282       C  0.90947588  0.89526536  0.47598490     0.98200
O3283       O  0.88781501  0.87664051  0.48133461    -0.82400
O3284       O  0.83289974  0.84514874  0.48352664    -0.85000
C3285       C  0.83996386  0.82876284  0.46797918     1.02600
O3286       O  0.83692286  0.84025465  0.45016648    -0.77800
O3287       O  0.83357285  0.88541207  0.41940115    -0.78000
C3288       C  0.86237116  0.89179294  0.41518886     1.02600
Cr3289     Cr  0.86205722  0.93176026  0.45066584     1.93700
Cr3290     Cr  0.84485582  0.88994646  0.48753982     1.93200
Cr3291     Cr  0.81138146  0.87974664  0.44658062     1.39100
O3292       O  0.83915763  0.90101899  0.46152599    -1.23100
O3293       O  0.66771973  0.52905964  0.45135869    -0.85300
O3294       O  0.61868394  0.53095337  0.47958428    -0.82400
C3295       C  0.63248099  0.52878187  0.49687599     0.98100
O3296       O  0.65014075  0.55106176  0.50326474    -0.82400
O3297       O  0.68119976  0.61168187  0.50318050    -0.85100
C3298       C  0.70870201  0.60947720  0.49548031     1.02700
O3299       O  0.71230387  0.59772296  0.47793898    -0.77800
O3300       O  0.70164982  0.56675718  0.44258091    -0.78000
C3301       C  0.69553324  0.53787929  0.44586661     1.02600
O3302       O  0.63367954  0.57276717  0.42569705    -0.85300
O3303       O  0.58786645  0.58208437  0.45680542    -0.82400
C3304       C  0.57747040  0.58892389  0.47466602     0.98200
O3305       O  0.59421279  0.58170622  0.48996056    -0.82400
O3306       O  0.62626867  0.63733563  0.48434533    -0.85000
C3307       C  0.64412198  0.65667847  0.47498898     1.02600
O3308       O  0.66958426  0.64791560  0.46601298    -0.77800
O3309       O  0.65880061  0.61736223  0.43002577    -0.78000
C3310       C  0.64301589  0.59900487  0.41890748     1.02600
Cr3311     Cr  0.62858066  0.55600293  0.45425058     1.93700
Cr3312     Cr  0.63929994  0.59456242  0.49316886     1.93200
Cr3313     Cr  0.68279704  0.60568904  0.45510641     1.39100
O3314       O  0.65071483  0.58538359  0.46737184    -1.23100
O3315       O  0.57762605  0.78008158  0.55192548    -0.85300
O3316       O  0.62697018  0.78015237  0.52374136    -0.82400
C3317       C  0.61285906  0.77662867  0.50672253     0.98100
O3318       O  0.59307083  0.79705883  0.50052576    -0.82400
O3319       O  0.55911096  0.85521557  0.49892063    -0.85100
C3320       C  0.53266570  0.85238529  0.50812735     1.02700
O3321       O  0.53203969  0.84427814  0.52678708    -0.77800
O3322       O  0.54870968  0.81963868  0.56359396    -0.78000
C3323       C  0.55183958  0.79052551  0.55964485     1.02600
O3324       O  0.61086386  0.82443476  0.57634427    -0.85300
O3325       O  0.65655698  0.83291829  0.54449445    -0.82400
C3326       C  0.66558184  0.83932603  0.52623184     0.98200
O3327       O  0.64849803  0.83078629  0.51131919    -0.82400
O3328       O  0.61515844  0.88531883  0.51336465    -0.85000
C3329       C  0.59778248  0.90566385  0.52188453     1.02600
O3330       O  0.57357064  0.89773401  0.53248090    -0.77800
O3331       O  0.59340427  0.87133519  0.56903994    -0.78000
C3332       C  0.60523769  0.85228745  0.58178991     1.02600
Cr3333     Cr  0.61662686  0.80646872  0.54819896     1.93700
Cr3334     Cr  0.60294277  0.84147414  0.50794722     1.93200
Cr3335     Cr  0.56424636  0.85668102  0.54704799     1.39100
O3336       O  0.59418942  0.83489790  0.53437606    -1.23100
O3337       O  0.93394378  0.95406297  0.31229722    -0.85300
O3338       O  0.90338908  0.96796556  0.27683509    -0.82400
C3339       C  0.89222370  0.96608225  0.25899499     0.98100
O3340       O  0.89020962  0.93952574  0.25025213    -0.82400
O3341       O  0.95203412  0.91266621  0.24762888    -0.85100
C3342       C  0.97664128  0.89764578  0.25312339     1.02700
O3343       O  0.97694367  0.88214551  0.26990025    -0.77800
O3344       O  0.97467135  0.92730053  0.29992598    -0.78000
C3345       C  0.96361419  0.95202910  0.30813686     1.02600
O3346       O  0.88518880  0.90478702  0.31920201    -0.85300
O3347       O  0.85465414  0.92103604  0.28480743    -0.82400
C3348       C  0.84767207  0.89516355  0.27610841     0.98200
O3349       O  0.86857777  0.87986997  0.26646729    -0.82400
O3350       O  0.92596271  0.85320546  0.25927469    -0.85000
C3351       C  0.92508898  0.83455167  0.27449857     1.02600
O3352       O  0.92957043  0.84513749  0.29248072    -0.77800
O3353       O  0.93358479  0.88864989  0.32496966    -0.78000
C3354       C  0.90504570  0.89223890  0.33093714     1.02600
Cr3355     Cr  0.89623934  0.93478821  0.29732909     1.93700
Cr3356     Cr  0.90997224  0.89744647  0.25783853     1.93200
Cr3357     Cr  0.95126600  0.88710960  0.29599371     1.39100
O3358       O  0.91940657  0.90693624  0.28370584    -1.23100
O3359       O  0.68769477  0.80234533  0.19076787    -0.85300
O3360       O  0.64875873  0.78730350  0.22253065    -0.82400
C3361       C  0.64073025  0.78759289  0.24116838     0.98100
O3362       O  0.64241482  0.81274711  0.25134690    -0.82400
O3363       O  0.70230925  0.84396898  0.25357314    -0.85100
C3364       C  0.72444708  0.86322542  0.24935271     1.02700
O3365       O  0.72322946  0.87950328  0.23307986    -0.77800
O3366       O  0.72600265  0.83256886  0.20350761    -0.78000
C3367       C  0.71689272  0.80656894  0.19578012     1.02600
O3368       O  0.64003921  0.85084711  0.17879204    -0.85300
O3369       O  0.60336688  0.83704817  0.21188781    -0.82400
C3370       C  0.59609367  0.85917183  0.22426006     0.98200
O3371       O  0.61609086  0.86980046  0.23685413    -0.82400
O3372       O  0.66991412  0.90117152  0.24277928    -0.85000
C3373       C  0.66791410  0.92056641  0.22798806     1.02600
O3374       O  0.67502417  0.91180677  0.20983746    -0.77800
O3375       O  0.68800679  0.87006183  0.17699608    -0.78000
C3376       C  0.66153026  0.86462400  0.16879856     1.02600
Cr3377     Cr  0.64690199  0.82178651  0.20227119     1.93700
Cr3378     Cr  0.65875211  0.85580857  0.24392017     1.93200
Cr3379     Cr  0.70026534  0.87164606  0.20664239     1.39100
O3380       O  0.66843424  0.84922176  0.21755116    -1.23100
O3381       O  0.58586499  0.54987033  0.31411931    -0.85300
O3382       O  0.61803810  0.53718036  0.27907429    -0.82400
C3383       C  0.62994218  0.53927935  0.26139475     0.94900
O3384       O  0.63086140  0.56544098  0.25224084    -0.82400
O3385       O  0.56756781  0.58824247  0.24983943    -0.85100
C3386       C  0.54248060  0.60303258  0.25475009     1.02700
O3387       O  0.54155008  0.61974213  0.27097756    -0.77800
O3388       O  0.54466524  0.57619892  0.30198410    -0.78000
C3389       C  0.55604281  0.55175318  0.31048853     1.02600
O3390       O  0.63227005  0.60064632  0.32160990    -0.85300
O3391       O  0.66514920  0.58610473  0.28684473    -0.82400
C3392       C  0.67149682  0.61093875  0.27649777     0.98200
O3393       O  0.64977532  0.62525175  0.26695851    -0.82400
O3394       O  0.59059546  0.64886945  0.25994851    -0.85000
C3395       C  0.59347635  0.66861071  0.27429292     1.02600
O3396       O  0.58845821  0.65946045  0.29268480    -0.77800
O3397       O  0.58338531  0.61621065  0.32636984    -0.78000
C3398       C  0.61105562  0.61139311  0.33330876     1.02600
Cr3399     Cr  0.62347577  0.57057801  0.29941435     1.93700
Cr3400     Cr  0.60887852  0.60596175  0.25925415     1.93200
Cr3401     Cr  0.56708766  0.61685204  0.29718828     1.39100
O3402       O  0.59975024  0.59734331  0.28539538    -1.23100
O3403       O  0.84162579  0.71400274  0.20222302    -0.85300
O3404       O  0.89434562  0.70799345  0.22683590    -0.82400
C3405       C  0.88286243  0.71355105  0.24451988     0.98100
O3406       O  0.86324316  0.69418077  0.25234782    -0.82400
O3407       O  0.82428238  0.63887606  0.25511419    -0.85100
C3408       C  0.79670702  0.64210266  0.24761434     1.02700
O3409       O  0.79309430  0.64897855  0.22891040    -0.77800
O3410       O  0.80645923  0.67827127  0.19259696    -0.78000
C3411       C  0.81394301  0.70706841  0.19594310     1.02600
O3412       O  0.86698776  0.66890842  0.17440627    -0.85300
O3413       O  0.91570205  0.65542929  0.20316032    -0.82400
C3414       C  0.92822039  0.64816325  0.22028855     0.98200
O3415       O  0.91412154  0.65449307  0.23707649    -0.82400
O3416       O  0.87527711  0.60486048  0.23712719    -0.85000
C3417       C  0.85618009  0.58567369  0.22921303     1.02600
O3418       O  0.83235718  0.59487692  0.21868986    -0.77800
O3419       O  0.84697239  0.62314469  0.18164046    -0.78000
C3420       C  0.85914243  0.64169924  0.16865656     1.02600
Cr3421     Cr  0.87800171  0.68434654  0.20274505     1.93700
Cr3422     Cr  0.86776296  0.64909792  0.24334183     1.93200
Cr3423     Cr  0.82243085  0.63781880  0.20623638     1.39100
O3424       O  0.85551456  0.65704468  0.21756078    -1.23100
C3425       C  0.95949773  0.60265544  0.23176120    -0.12200
C3426       C  0.95921240  0.63218238  0.22189610     0.04800
C3427       C  0.98795285  0.64907252  0.21978441    -0.07500
C3428       C  0.51584200  0.62995566  0.22595717    -0.08300
C3429       C  0.51543144  0.60532546  0.24044976    -0.02800
C3430       C  0.98703456  0.59154034  0.24153133     0.04000
N3431       N  0.98528291  0.56325121  0.25348219     0.66500
H3432       H  0.93741497  0.58956056  0.23364389     0.15400
H3433       H  0.53793142  0.64255832  0.22291673     0.15100
N3434       N  0.98852955  0.67962335  0.21052056     0.74200
O3435       O  0.97474926  0.56443634  0.27172560    -0.39300
O3436       O  0.48200022  0.53663244  0.25337048    -0.39200
O3437       O  0.98702181  0.70368013  0.22186710    -0.39900
O3438       O  0.49410061  0.66654883  0.18585900    -0.40000
C3439       C  0.72998590  0.60026872  0.27632996    -0.12200
C3440       C  0.70502609  0.62189334  0.27380566     0.04800
C3441       C  0.71253954  0.65249103  0.26641411    -0.07500
C3442       C  0.74345777  0.65937520  0.25945515    -0.08300
C3443       C  0.76765802  0.63676042  0.26022238    -0.02800
C3444       C  0.76108910  0.60743994  0.26970878     0.04000
N3445       N  0.78476293  0.58346084  0.27103706     0.66500
H3446       H  0.72505141  0.57683931  0.28222364     0.15400
H3447       H  0.74826365  0.68223124  0.25259809     0.15100
N3448       N  0.68926450  0.67700999  0.26580607     0.74200
O3449       O  0.79838407  0.57901554  0.28811137    -0.39300
O3450       O  0.78434253  0.56143605  0.25801419    -0.39200
O3451       O  0.69097526  0.69874822  0.27897024    -0.39900
O3452       O  0.67438149  0.68202155  0.24925490    -0.40000
C3453       C  0.77385709  0.78851255  0.19340682    -0.12200
C3454       C  0.74121216  0.78071959  0.19304300     0.04800
C3455       C  0.73308262  0.74831221  0.19204613    -0.07500
C3456       C  0.75708653  0.72505322  0.19186177    -0.08300
C3457       C  0.78965117  0.73285606  0.19311645    -0.02800
C3458       C  0.79781046  0.76531073  0.19357378     0.04000
N3459       N  0.83030176  0.77544628  0.19457751     0.66500
H3460       H  0.78105731  0.81301461  0.19411535     0.15400
H3461       H  0.74991191  0.70051515  0.19189151     0.15100
N3462       N  0.70068835  0.73813971  0.19338016     0.74200
O3463       O  0.84461157  0.78313811  0.17815400    -0.39300
O3464       O  0.84158947  0.78405891  0.21166985    -0.39200
O3465       O  0.68717244  0.72793153  0.17738345    -0.39900
O3466       O  0.68962069  0.73059088  0.21083442    -0.40000
C3467       C  0.62887968  0.75255002  0.27202271    -0.12200
C3468       C  0.62762445  0.75814395  0.25057725     0.04800
C3469       C  0.61225825  0.73561615  0.23806569    -0.07500
C3470       C  0.59982354  0.70826132  0.24676708    -0.08300
C3471       C  0.60252770  0.70138375  0.26791975    -0.02800
C3472       C  0.61669939  0.72434327  0.28076687     0.04000
N3473       N  0.61937319  0.71944576  0.30248745     0.66500
H3474       H  0.63997025  0.76979196  0.28199044     0.15400
H3475       H  0.58831227  0.69179828  0.23642594     0.15100
N3476       N  0.60816791  0.74023339  0.21637195     0.74200
O3477       O  0.64493783  0.70845664  0.30975471    -0.39300
O3478       O  0.59999489  0.73309208  0.31442230    -0.39200
O3479       O  0.62437694  0.72391811  0.20392797    -0.39900
O3480       O  0.58323266  0.75363796  0.21000136    -0.40000
C3481       C  0.66662078  0.96229121  0.25396351    -0.12200
C3482       C  0.65960102  0.95347768  0.23365790     0.04800
C3483       C  0.64318093  0.97520662  0.22103072    -0.07500
C3484       C  0.63423556  0.00479578  0.22904123    -0.08300
C3485       C  0.64469195  0.51124894  0.25225971    -0.02800
C3486       C  0.66138679  0.49004118  0.26487931     0.04000
N3487       N  0.66954174  0.49760212  0.28567721     0.66500
H3488       H  0.67787446  0.94610947  0.26426558     0.15400
H3489       H  0.62051340  0.02086192  0.21960941     0.15100
N3490       N  0.63327444  0.96714870  0.20075552     0.74200
O3491       O  0.65551257  0.48359304  0.30031244    -0.39300
O3492       O  0.69574074  0.51127466  0.28911005    -0.39200
O3493       O  0.64249757  0.98426042  0.18595186    -0.39900
O3494       O  0.60873816  0.95020537  0.19858029    -0.40000
C3495       C  0.52007209  0.97257242  0.31311295    -0.12200
C3496       C  0.98594604  0.97902645  0.31217848     0.04800
C3497       C  0.97785454  0.50731616  0.32176832    -0.07500
C3498       C  0.00028970  0.53197298  0.32024910    -0.08300
C3499       C  0.53363680  0.52503483  0.31568532    -0.02800
C3500       C  0.54308841  0.99679172  0.31301211     0.04000
N3501       N  0.57602940  0.98831880  0.31306520     0.66500
H3502       H  0.52817451  0.94833809  0.31355891     0.15400
H3503       H  0.99182750  0.55605914  0.32111538     0.15100
N3504       N  0.94521571  0.51553626  0.32481272     0.74200
O3505       O  0.58949226  0.98270006  0.33004240    -0.39300
O3506       O  0.58876110  0.97868671  0.29658789    -0.39200
O3507       O  0.93466941  0.51785382  0.34300499    -0.39900
O3508       O  0.93089371  0.52970344  0.31048629    -0.40000
C3509       C  0.50584527  0.86996015  0.22515122    -0.12200
C3510       C  0.00484633  0.89521109  0.23963226     0.04800
C3511       C  0.03253970  0.91229153  0.24419699    -0.07500
C3512       C  0.56080199  0.90254571  0.23567811    -0.08300
C3513       C  0.56374229  0.87354120  0.22529517    -0.02800
C3514       C  0.53564952  0.85842076  0.21861489     0.04000
N3515       N  0.53690881  0.83025624  0.20667705     0.66500
H3516       H  0.48436409  0.85694265  0.22131808     0.15400
H3517       H  0.58190974  0.91579318  0.24005059     0.15100
N3518       N  0.03166277  0.93838759  0.25799117     0.74200
O3519       O  0.52963114  0.83123957  0.18782992    -0.39300
O3520       O  0.53880051  0.80396111  0.21567810    -0.39200
O3521       O  0.04002346  0.93422410  0.27644295    -0.39900
O3522       O  0.03117756  0.96596849  0.25070676    -0.40000
C3523       C  0.79023375  0.90705532  0.27558685    -0.12200
C3524       C  0.81419626  0.88433584  0.27527173     0.04800
C3525       C  0.80575181  0.85255361  0.27153325    -0.07500
C3526       C  0.77464002  0.84498477  0.26533280    -0.08300
C3527       C  0.75179548  0.86866763  0.26304243    -0.02800
C3528       C  0.75936661  0.89959207  0.26942503     0.04000
N3529       N  0.73652971  0.92435986  0.26875154     0.66500
H3530       H  0.79589882  0.93141698  0.27904322     0.15400
H3531       H  0.76908740  0.82101527  0.26083256     0.15100
N3532       N  0.82841649  0.82777800  0.27382963     0.74200
O3533       O  0.72357980  0.93259652  0.28549766    -0.39300
O3534       O  0.73824483  0.94403847  0.25416027    -0.39200
O3535       O  0.82969296  0.81333500  0.29083128    -0.39900
O3536       O  0.84036190  0.81525754  0.25795456    -0.40000
C3537       C  0.85647990  0.54677277  0.25664973    -0.12200
C3538       C  0.86050883  0.55268848  0.23561337     0.04800
C3539       C  0.87516636  0.52960064  0.22320855    -0.07500
C3540       C  0.88581969  0.50130596  0.23224964    -0.08300
C3541       C  0.88002119  0.99516482  0.24910135    -0.02800
C3542       C  0.86615617  0.51858545  0.26561762     0.04000
N3543       N  0.85466825  0.01228458  0.28193666     0.66500
H3544       H  0.84664921  0.56495668  0.26649249     0.15400
H3545       H  0.89788708  0.98392671  0.21870895     0.15100
N3546       N  0.88161298  0.53544461  0.20191221     0.74200
O3547       O  0.86903924  0.53194997  0.30025710    -0.39300
O3548       O  0.82798354  0.99937320  0.28526761    -0.39200
O3549       O  0.90873086  0.54568761  0.19660036    -0.39900
O3550       O  0.86360425  0.52353239  0.18847884    -0.40000
C3551       C  0.91892296  0.75931760  0.24454446    -0.12200
C3552       C  0.89516522  0.74234038  0.25516817     0.04800
C3553       C  0.88540448  0.75360614  0.27476169    -0.07500
C3554       C  0.89752858  0.78266627  0.28213976    -0.08300
C3555       C  0.91904129  0.80068657  0.27018424    -0.02800
C3556       C  0.93070614  0.78770853  0.25170529     0.04000
N3557       N  0.95432169  0.80339991  0.23951840     0.66500
H3558       H  0.92853601  0.75098349  0.22999689     0.15400
H3559       H  0.88874383  0.79195304  0.29664383     0.15100
N3560       N  0.86323266  0.73633957  0.28719843     0.74200
O3561       O  0.98337574  0.79847219  0.24339533    -0.39300
O3562       O  0.94663070  0.81363959  0.22194478    -0.39200
O3563       O  0.87312405  0.72195896  0.30297432    -0.39900
O3564       O  0.83369156  0.74105443  0.28510085    -0.40000
C3565       C  0.60339194  0.61127225  0.39182890    -0.12200
C3566       C  0.63541075  0.60779815  0.39750615     0.04800
C3567       C  0.65937026  0.61001111  0.38228668    -0.07500
C3568       C  0.65086970  0.61381252  0.36159110    -0.08300
C3569       C  0.61865098  0.61526938  0.35556129    -0.02800
C3570       C  0.59479605  0.61527954  0.37110920     0.04000
N3571       N  0.56167140  0.61726978  0.36616520     0.66500
H3572       H  0.58482234  0.60980798  0.40351218     0.15400
H3573       H  0.66970398  0.61386437  0.35005839     0.15100
N3574       N  0.69223885  0.60555360  0.38731016     0.74200
O3575       O  0.54549516  0.59229974  0.36463633    -0.39300
O3576       O  0.54743396  0.64324929  0.36823900    -0.39200
O3577       O  0.70453597  0.57863962  0.38512589    -0.39900
O3578       O  0.71022386  0.62927314  0.38888612    -0.40000
C3579       C  0.59950971  0.73300340  0.48256313    -0.12200
C3580       C  0.62225852  0.74943281  0.49406228     0.04800
C3581       C  0.65395000  0.73789433  0.49492994    -0.07500
C3582       C  0.66110562  0.70845163  0.48681817    -0.08300
C3583       C  0.63755828  0.69043067  0.47732891    -0.02800
C3584       C  0.60709035  0.70366848  0.47391471     0.04000
N3585       N  0.58429580  0.68841270  0.46100523     0.66500
H3586       H  0.57558197  0.74237971  0.48090056     0.15400
H3587       H  0.68473849  0.69875589  0.48924559     0.15100
N3588       N  0.67903098  0.75536544  0.50452263     0.74200
O3589       O  0.55703366  0.68191751  0.46816591    -0.39300
O3590       O  0.58788391  0.69023421  0.44170753    -0.39200
O3591       O  0.68787132  0.74788685  0.52245496    -0.39900
O3592       O  0.69706268  0.77232605  0.49347915    -0.40000
C3593       C  0.59402322  0.98967797  0.50330135    -0.12200
C3594       C  0.62420447  0.50068939  0.50943447     0.04800
C3595       C  0.64864142  0.97740320  0.51256937    -0.07500
C3596       C  0.63828525  0.94798406  0.51985258    -0.08300
C3597       C  0.60603754  0.93900436  0.51855536    -0.02800
C3598       C  0.58350020  0.96081872  0.51120333     0.04000
N3599       N  0.55033129  0.95311777  0.50996845     0.66500
H3600       H  0.57380579  0.50683965  0.50356219     0.15400
H3601       H  0.65576886  0.93150335  0.52581136     0.15100
N3602       N  0.67976926  0.48972335  0.51967192     0.74200
O3603       O  0.53191119  0.96135295  0.52442064    -0.39300
O3604       O  0.53855332  0.94614156  0.49271210    -0.39200
O3605       O  0.69031274  0.49664941  0.53728156    -0.39900
O3606       O  0.70064277  0.97534415  0.50011848    -0.40000
C3607       C  0.85296864  0.88049245  0.37822768    -0.12200
C3608       C  0.87496245  0.88580774  0.39409661     0.04800
C3609       C  0.90783022  0.88788937  0.38897092    -0.07500
C3610       C  0.91749851  0.88716551  0.36824550    -0.08300
C3611       C  0.89504532  0.88485256  0.35235179    -0.02800
C3612       C  0.86254092  0.88017529  0.35758045     0.04000
N3613       N  0.83863118  0.87616491  0.34213445     0.66500
H3614       H  0.82770950  0.87819603  0.38169267     0.15400
H3615       H  0.94257545  0.89048349  0.36457251     0.15100
N3616       N  0.93169411  0.89171660  0.40443868     0.74200
O3617       O  0.82991293  0.84867975  0.33738908    -0.39300
O3618       O  0.82104421  0.89917314  0.33740701    -0.39200
O3619       O  0.94735376  0.86798648  0.41031042    -0.39900
O3620       O  0.94241882  0.91890897  0.40810529    -0.40000
C3621       C  0.77738676  0.49783486  0.44847513    -0.12200
C3622       C  0.77173838  0.96898940  0.43015132     0.04800
C3623       C  0.73959411  0.96246922  0.42493271    -0.07500
C3624       C  0.71614156  0.98588247  0.42715866    -0.08300
C3625       C  0.72184588  0.51424677  0.44358425    -0.02800
C3626       C  0.75345012  0.52088938  0.45000156     0.04000
N3627       N  0.76124884  0.54998262  0.45977560     0.66500
H3628       H  0.80090645  0.50311448  0.45449522     0.15400
H3629       H  0.69143782  0.98003158  0.42399143     0.15100
N3630       N  0.73073356  0.93312289  0.41583960     0.74200
O3631       O  0.76056304  0.55140625  0.47920772    -0.39300
O3632       O  0.77688237  0.57042426  0.44980435    -0.39200
O3633       O  0.73613899  0.92919600  0.39686462    -0.39900
O3634       O  0.70952219  0.91650583  0.42441261    -0.40000
C3635       C  0.75192743  0.86621051  0.51997053    -0.12200
C3636       C  0.74963824  0.87987780  0.50022497     0.04800
C3637       C  0.71948388  0.88470676  0.49159601    -0.07500
C3638       C  0.69246163  0.87467458  0.50211210    -0.08300
C3639       C  0.69457157  0.85738597  0.52057760    -0.02800
C3640       C  0.72458237  0.85438285  0.53011068     0.04000
N3641       N  0.72821212  0.83716973  0.54887691     0.66500
H3642       H  0.77522862  0.86234209  0.52674448     0.15400
H3643       H  0.66964853  0.87792592  0.49456088     0.15100
N3644       N  0.71589935  0.89649416  0.47114827     0.74200
O3645       O  0.73589476  0.80846806  0.54811151    -0.39300
O3646       O  0.73188723  0.85207490  0.56550106    -0.39200
O3647       O  0.71113286  0.87697543  0.45685268    -0.39900
O3648       O  0.70780331  0.92484277  0.46859107    -0.40000
C3649       C  0.96838851  0.88937709  0.46941485    -0.12200
C3650       C  0.94195848  0.88686215  0.48271505     0.04800
C3651       C  0.94574601  0.87175984  0.50198013    -0.07500
C3652       C  0.47431377  0.85774098  0.51033697    -0.08300
C3653       C  0.50191265  0.86107550  0.49823362    -0.02800
C3654       C  0.49926157  0.87577154  0.47862093     0.04000
N3655       N  0.52555831  0.87673437  0.46452411     0.66500
H3656       H  0.96547967  0.89978473  0.45426114     0.15400
H3657       H  0.47520062  0.84630984  0.52528483     0.15100
N3658       N  0.91995925  0.86856006  0.51640914     0.74200
O3659       O  0.53019248  0.85348923  0.45281009    -0.39300
O3660       O  0.53798319  0.90290669  0.45989483    -0.39200
O3661       O  0.90463356  0.84296004  0.51711154    -0.39900
O3662       O  0.91892757  0.88667452  0.53177242    -0.40000
C3663       C  0.50002777  0.71756418  0.56790714    -0.12200
C3664       C  0.97136979  0.72818621  0.55862046     0.04800
C3665       C  0.96863197  0.75941700  0.55098806    -0.07500
C3666       C  0.49351072  0.78104010  0.55785100    -0.08300
C3667       C  0.52386946  0.76943278  0.56280672    -0.02800
C3668       C  0.52691214  0.73750464  0.56832208     0.04000
N3669       N  0.55715465  0.72509361  0.57440700     0.66500
H3670       H  0.50318953  0.69297573  0.57189851     0.15400
H3671       H  0.99244827  0.80301551  0.54461294     0.15100
N3672       N  0.93973177  0.77085127  0.54207307     0.74200
O3673       O  0.56990254  0.73439587  0.59090191    -0.39300
O3674       O  0.57315990  0.70866788  0.56191175    -0.39200
O3675       O  0.92238594  0.78947653  0.55228729    -0.39900
O3676       O  0.93598656  0.76891815  0.52282100    -0.40000
C3677       C  0.54935595  0.62797408  0.49595417    -0.12200
C3678       C  0.54781829  0.60701169  0.47921627     0.04800
C3679       C  0.51804283  0.60216151  0.46970441    -0.07500
C3680       C  0.98990057  0.61094582  0.47839925    -0.08300
C3681       C  0.99154755  0.63280322  0.49473977    -0.02800
C3682       C  0.52227170  0.64262349  0.50397084     0.04000
N3683       N  0.52622693  0.66406247  0.52075447     0.66500
H3684       H  0.57202021  0.63274180  0.50335151     0.15400
H3685       H  0.96682881  0.60279164  0.47305621     0.15100
N3686       N  0.51481313  0.58077533  0.45291709     0.74200
O3687       O  0.52915004  0.65331665  0.53880979    -0.39300
O3688       O  0.53502594  0.69194200  0.51699271    -0.39200
O3689       O  0.50506692  0.55313854  0.45644594    -0.39900
O3690       O  0.51362179  0.59152466  0.43478150    -0.40000
C3691       C  0.74383730  0.61853740  0.52654272    -0.12200
C3692       C  0.73663480  0.62387777  0.50561652     0.04800
C3693       C  0.75654780  0.64387248  0.49396684    -0.07500
C3694       C  0.78437863  0.65546214  0.50251213    -0.08300
C3695       C  0.79352189  0.64836774  0.52286108    -0.02800
C3696       C  0.77211315  0.63084836  0.53532178     0.04000
N3697       N  0.77862706  0.62516129  0.55659718     0.66500
H3698       H  0.72797082  0.60417948  0.53590640     0.15400
H3699       H  0.79972189  0.66938165  0.49251549     0.15100
N3700       N  0.74874117  0.65315177  0.47335623     0.74200
O3701       O  0.76797857  0.64416177  0.56986262    -0.39300
O3702       O  0.78742708  0.59814393  0.56232993    -0.39200
O3703       O  0.73710360  0.68016018  0.47032738    -0.39900
O3704       O  0.76141935  0.63880364  0.45841200    -0.40000
C3705       C  0.91319768  0.53732806  0.50539512    -0.12200
C3706       C  0.89324195  0.55258990  0.51959491     0.04800
C3707       C  0.86505299  0.53736023  0.52637515    -0.07500
C3708       C  0.85693639  0.50767659  0.51861256    -0.08300
C3709       C  0.86056444  0.98777802  0.50236231    -0.02800
C3710       C  0.88703069  0.99182690  0.51547675     0.04000
N3711       N  0.90621274  0.96557072  0.52132205     0.66500
H3712       H  0.93445006  0.54908532  0.49963433     0.15400
H3713       H  0.83488596  0.49649324  0.52352918     0.15100
N3714       N  0.84328482  0.55252308  0.54005980     0.74200
O3715       O  0.92873324  0.95661535  0.50976156    -0.39300
O3716       O  0.89800044  0.94893671  0.53659857    -0.39200
O3717       O  0.81701246  0.56208251  0.53298873    -0.39900
O3718       O  0.84592812  0.54789341  0.55920334    -0.40000
C3719       C  0.88967141  0.75668160  0.47945338    -0.12200
C3720       C  0.86848201  0.74105428  0.49287079     0.04800
C3721       C  0.83655835  0.75208449  0.49444064    -0.07500
C3722       C  0.82706836  0.77849526  0.48338431    -0.08300
C3723       C  0.84880891  0.79580636  0.47166406    -0.02800
C3724       C  0.88031650  0.78446455  0.46922139     0.04000
N3725       N  0.90382960  0.80231918  0.45824292     0.66500
H3726       H  0.91418097  0.74870944  0.47812339     0.15400
H3727       H  0.80301945  0.78741954  0.48567403     0.15100
N3728       N  0.81367130  0.73837010  0.50824317     0.74200
O3729       O  0.92329857  0.81891755  0.46826817    -0.39300
O3730       O  0.91060106  0.79483593  0.43992864    -0.39200
O3731       O  0.81298047  0.74778151  0.52668606    -0.39900
O3732       O  0.78863468  0.72656974  0.50077006    -0.40000
C3733       C  0.54463698  0.76653617  0.94493792    -0.12200
C3734       C  0.53641362  0.73446433  0.94429101     0.04800
C3735       C  0.00418019  0.72598301  0.93842300    -0.07500
C3736       C  0.98101450  0.75000721  0.93744973    -0.08300
C3737       C  0.98865732  0.78161610  0.94170125    -0.02800
C3738       C  0.52148235  0.79038763  0.94323826     0.04000
N3739       N  0.53203177  0.82239133  0.94347967     0.66500
H3740       H  0.56937898  0.77333167  0.94696447     0.15400
H3741       H  0.95656857  0.74356207  0.93399976     0.15100
N3742       N  0.99421336  0.69428890  0.93479796     0.74200
O3743       O  0.53771514  0.83543577  0.96053380    -0.39300
O3744       O  0.54331033  0.83433792  0.92715696    -0.39200
O3745       O  0.98033643  0.67926133  0.94907376    -0.39900
O3746       O  0.99156246  0.68478148  0.91646815    -0.40000
C3747       C  0.65238845  0.90851581  0.11809713    -0.12200
C3748       C  0.65155967  0.88361851  0.10393479     0.04800
C3749       C  0.65240013  0.85235088  0.11156360    -0.07500
C3750       C  0.65446282  0.84685782  0.13285844    -0.08300
C3751       C  0.65667499  0.87189515  0.14679385    -0.02800
C3752       C  0.65544148  0.90295801  0.13924564     0.04000
N3753       N  0.65598605  0.92928516  0.15278065     0.66500
H3754       H  0.65194932  0.93271768  0.11271010     0.15400
H3755       H  0.65536696  0.82280083  0.13850354     0.15100
N3756       N  0.65160995  0.82588322  0.09804043     0.74200
O3757       O  0.68245769  0.94193247  0.15694290    -0.39300
O3758       O  0.63077783  0.94524628  0.15466957    -0.39200
O3759       O  0.67722254  0.81136920  0.09420630    -0.39900
O3760       O  0.62528559  0.81240866  0.09468581    -0.40000
C3761       C  0.53395251  0.87651981  0.03220876    -0.12200
C3762       C  0.54927963  0.90359816  0.02451381     0.04800
C3763       C  0.53348918  0.92180042  0.00953612    -0.07500
C3764       C  0.00363312  0.91097371  0.00188413    -0.08300
C3765       C  0.99095337  0.88128955  0.00682478    -0.02800
C3766       C  0.50567833  0.86510307  0.02300329     0.04000
N3767       N  0.49305549  0.83538328  0.02947720     0.66500
H3768       H  0.54535033  0.86287451  0.04420071     0.15400
H3769       H  0.99238096  0.92568731  0.99030835     0.15100
N3770       N  0.54644755  0.95084365  0.00216743     0.74200
O3771       O  0.50059705  0.81078659  0.01972842    -0.39300
O3772       O  0.48010627  0.83290950  0.04701283    -0.39200
O3773       O  0.56145236  0.95104420  0.98524411    -0.39900
O3774       O  0.53429067  0.97616757  0.00861265    -0.40000
C3775       C  0.79396460  0.84133924  0.99724544    -0.12200
C3776       C  0.80295943  0.84939070  0.97719927     0.04800
C3777       C  0.78301237  0.86922248  0.96553377    -0.07500
C3778       C  0.75433103  0.88067945  0.97425952    -0.08300
C3779       C  0.74603004  0.87316456  0.99477231    -0.02800
C3780       C  0.76593239  0.85261793  0.00604416     0.04000
N3781       N  0.75861920  0.84361501  0.02679780     0.66500
H3782       H  0.81031512  0.82832586  0.00689180     0.15400
H3783       H  0.73947092  0.89661766  0.96544752     0.15100
N3784       N  0.79313366  0.88000501  0.94566685     0.74200
O3785       O  0.74711518  0.81661124  0.03016154    -0.39300
O3786       O  0.77179020  0.85815050  0.04141982    -0.39200
O3787       O  0.79158460  0.86156591  0.93048286    -0.39900
O3788       O  0.81003281  0.90455875  0.94429590    -0.40000
C3789       C  0.66974734  0.78100579  0.02230508    -0.12200
C3790       C  0.64500593  0.80292806  0.02419732     0.04800
C3791       C  0.61305877  0.79216970  0.02359308    -0.07500
C3792       C  0.60647487  0.76076305  0.01889264    -0.08300
C3793       C  0.63125643  0.74012178  0.01417674    -0.02800
C3794       C  0.66323348  0.74984737  0.01701827     0.04000
N3795       N  0.68942836  0.72911103  0.01301547     0.66500
H3796       H  0.69438344  0.78855071  0.02314061     0.15400
H3797       H  0.58187487  0.75344541  0.01683892     0.15100
N3798       N  0.58686922  0.81294323  0.02681703     0.74200
O3799       O  0.70338354  0.73041727  0.99574242    -0.39300
O3800       O  0.70361767  0.71649324  0.02803323    -0.39200
O3801       O  0.57348215  0.82502673  0.01130861    -0.39900
O3802       O  0.57160546  0.81094700  0.04358483    -0.40000
C3803       C  0.63530703  0.53685022  0.97093238    -0.12200
C3804       C  0.60898845  0.55261307  0.97962663     0.04800
C3805       C  0.59186448  0.53816166  0.99557064    -0.07500
C3806       C  0.60298885  0.51034575  0.00425260    -0.08300
C3807       C  0.63024994  0.99403753  0.99311077    -0.02800
C3808       C  0.64733264  0.00654648  0.97610073     0.04000
N3809       N  0.67586896  0.99194403  0.96874325     0.66500
H3810       H  0.64896721  0.54811268  0.95875068     0.15400
H3811       H  0.59016796  0.50126570  0.01748243     0.15100
N3812       N  0.56342733  0.55222306  0.00354203     0.74200
O3813       O  0.67550949  0.97771359  0.95169563    -0.39300
O3814       O  0.70230716  0.99974259  0.97647499    -0.39200
O3815       O  0.53790314  0.55021169  0.99339978    -0.39900
O3816       O  0.56460831  0.56966728  0.01923685    -0.40000
C3817       C  0.86950949  0.64404156  0.10987489    -0.12200
C3818       C  0.86749390  0.61205414  0.10454014     0.04800
C3819       C  0.86417123  0.58970909  0.12069782    -0.07500
C3820       C  0.86219288  0.59977860  0.14135587    -0.08300
C3821       C  0.86334195  0.63191290  0.14659225    -0.02800
C3822       C  0.86742129  0.65410297  0.13042962     0.04000
N3823       N  0.86762588  0.68719556  0.13433924     0.66500
H3824       H  0.87178112  0.66174345  0.09785806     0.15400
H3825       H  0.85905005  0.58220704  0.15337471     0.15100
N3826       N  0.86072860  0.55687663  0.11647082     0.74200
O3827       O  0.89390733  0.70173988  0.13454656    -0.39300
O3828       O  0.84204476  0.70259504  0.13248203    -0.39200
O3829       O  0.88398738  0.53868697  0.11969161    -0.39900
O3830       O  0.83308047  0.54536792  0.11473455    -0.40000
C3831       C  0.72538449  0.50915200  0.06441939    -0.12200
C3832       C  0.72878557  0.97869134  0.05797836     0.04800
C3833       C  0.75938935  0.97264227  0.06633113    -0.07500
C3834       C  0.78373256  0.99544425  0.06468353    -0.08300
C3835       C  0.78201653  0.52362798  0.06342250    -0.02800
C3836       C  0.74945926  0.53239391  0.06480075     0.04000
N3837       N  0.74016074  0.56467282  0.06615454     0.66500
H3838       H  0.70063646  0.51662772  0.06466145     0.15400
H3839       H  0.80717872  0.99012176  0.07078840     0.15100
N3840       N  0.76650832  0.94343755  0.07624064     0.74200
O3841       O  0.72995508  0.57854686  0.05028124    -0.39300
O3842       O  0.73430237  0.57625167  0.08366481    -0.39200
O3843       O  0.78216140  0.92283119  0.06653531    -0.39900
O3844       O  0.76450620  0.94161825  0.09562605    -0.40000
C3845       C  0.73381382  0.65601396  0.97498142    -0.12200
C3846       C  0.70641302  0.63906908  0.98089221     0.04800
C3847       C  0.70988599  0.61198702  0.99354702    -0.07500
C3848       C  0.74001100  0.60256159  0.99991264    -0.08300
C3849       C  0.76683603  0.62082530  0.99556112    -0.02800
C3850       C  0.76394283  0.64749380  0.98268688     0.04000
N3851       N  0.79037148  0.66831504  0.97963007     0.66500
H3852       H  0.73146038  0.67741445  0.96607117     0.15400
H3853       H  0.74207843  0.58209161  0.00975141     0.15100
N3854       N  0.68315939  0.59499186  0.00171207     0.74200
O3855       O  0.80988664  0.66334313  0.96513207    -0.39300
O3856       O  0.79703354  0.68833131  0.99330437    -0.39200
O3857       O  0.68116668  0.56596258  0.99791836    -0.39900
O3858       O  0.66967369  0.60528300  0.01778209    -0.40000
C3859       C  0.97890698  0.61394641  0.03143522    -0.12200
C3860       C  0.96042141  0.59465246  0.01850121     0.04800
C3861       C  0.97121529  0.58962732  0.99804515    -0.07500
C3862       C  0.99746658  0.60580665  0.99042725    -0.08300
C3863       C  0.51056615  0.62618013  0.00380785    -0.02800
C3864       C  0.50164483  0.63047455  0.02471175     0.04000
N3865       N  0.51839663  0.65210632  0.03755524     0.66500
H3866       H  0.97085242  0.61869199  0.04702697     0.15400
H3867       H  0.50099012  0.59978571  0.97617015     0.15100
N3868       N  0.95622547  0.56746076  0.98467013     0.74200
O3869       O  0.50852215  0.68008473  0.03900658    -0.39300
O3870       O  0.53741693  0.64159906  0.05093090    -0.39200
O3871       O  0.94090907  0.57744630  0.96926729    -0.39900
O3872       O  0.96582539  0.53930622  0.98484535    -0.40000
C3873       C  0.89378500  0.50454271  0.97671007    -0.12200
C3874       C  0.86751384  0.50552412  0.99016804     0.04800
C3875       C  0.84770520  0.97739067  0.99201314    -0.07500
C3876       C  0.85861945  0.94860190  0.98441601    -0.08300
C3877       C  0.88369522  0.94730331  0.96991234    -0.02800
C3878       C  0.89505582  0.97558427  0.96107816     0.04000
N3879       N  0.91955779  0.97550201  0.94569409     0.66500
H3880       H  0.90757686  0.52564683  0.97398803     0.15400
H3881       H  0.84887922  0.92707869  0.99089478     0.15100
N3882       N  0.82381727  0.97794436  0.00784582     0.74200
O3883       O  0.93349649  0.48473678  0.93832150    -0.39300
O3884       O  0.94828519  0.97876687  0.95105629    -0.39200
O3885       O  0.79727327  0.49317804  0.00120372    -0.39900
O3886       O  0.83039298  0.96818093  0.02571647    -0.40000
C3887       C  0.85396322  0.71855201  0.02202758    -0.12200
C3888       C  0.87551162  0.69397021  0.01814823     0.04800
C3889       C  0.90443498  0.70130733  0.00762717    -0.07500
C3890       C  0.91008179  0.73181747  0.00033729    -0.08300
C3891       C  0.88764293  0.75579970  0.00301400    -0.02800
C3892       C  0.85952122  0.74910755  0.01439535     0.04000
N3893       N  0.83450212  0.77164659  0.01621122     0.66500
H3894       H  0.83151935  0.71366041  0.02981483     0.15400
H3895       H  0.93185180  0.73648251  0.99169690     0.15100
N3896       N  0.92824610  0.67805400  0.00361273     0.74200
O3897       O  0.81096737  0.76940345  0.00421848    -0.39300
O3898       O  0.83107935  0.78607742  0.03305909    -0.39200
O3899       O  0.92916734  0.66503974  0.98614609    -0.39900
O3900       O  0.95276953  0.67744140  0.01479530    -0.40000
C3901       C  0.85783423  0.85623270  0.88687498    -0.12200
C3902       C  0.89013669  0.85838436  0.89256142     0.04800
C3903       C  0.91310495  0.86371547  0.87681723    -0.07500
C3904       C  0.90370910  0.86442870  0.85608394    -0.08300
C3905       C  0.87166077  0.86038843  0.85038726    -0.02800
C3906       C  0.84843391  0.85727515  0.86614560     0.04000
N3907       N  0.81545645  0.85276755  0.86143664     0.66500
H3908       H  0.83963103  0.85260076  0.89858320     0.15400
H3909       H  0.92191462  0.86723433  0.84426808     0.15100
N3910       N  0.94628862  0.86695015  0.88134039     0.74200
O3911       O  0.80487593  0.82517276  0.85909542    -0.39300
O3912       O  0.79607771  0.87505151  0.86438987    -0.39200
O3913       O  0.96452525  0.84362961  0.87880812    -0.39900
O3914       O  0.95823550  0.89419351  0.88239076    -0.40000
C3915       C  0.62813763  0.62634429  0.86478972    -0.12200
C3916       C  0.64926764  0.64952037  0.85746825     0.04800
C3917       C  0.66164076  0.67176496  0.87139239    -0.07500
C3918       C  0.65180332  0.67132510  0.89197801    -0.08300
C3919       C  0.62909696  0.64944435  0.89923233    -0.02800
C3920       C  0.61766508  0.62632331  0.88544026     0.04000
N3921       N  0.59362844  0.60431924  0.89157829     0.66500
H3922       H  0.61818334  0.60935088  0.85413949     0.15400
H3923       H  0.66157200  0.68894041  0.90226520     0.15100
N3924       N  0.68420396  0.69510773  0.86487700     0.74200
O3925       O  0.56464060  0.61132897  0.88904475    -0.39300
O3926       O  0.60121174  0.57594451  0.89462661    -0.39200
O3927       O  0.67472529  0.72280683  0.86140072    -0.39900
O3928       O  0.71359135  0.69020395  0.86760264    -0.40000
C3929       C  0.75081157  0.78256770  0.81126729    -0.12200
C3930       C  0.78253258  0.77373145  0.80714527     0.04800
C3931       C  0.78902635  0.74154633  0.80349685    -0.07500
C3932       C  0.76390132  0.71954816  0.80316228    -0.08300
C3933       C  0.73194270  0.72887813  0.80584031    -0.02800
C3934       C  0.72562269  0.76085481  0.81026193     0.04000
N3935       N  0.69381625  0.77194990  0.81358399     0.66500
H3936       H  0.74526528  0.80699255  0.81450501     0.15400
H3937       H  0.76936987  0.69517485  0.79965802     0.15100
N3938       N  0.82044528  0.73100649  0.79844504     0.74200
O3939       O  0.67823661  0.78266193  0.79850888    -0.39300
O3940       O  0.68492694  0.77865134  0.83165911    -0.39200
O3941       O  0.83659334  0.71704296  0.81205332    -0.39900
O3942       O  0.82800668  0.72767386  0.77972077    -0.40000
C3943       C  0.61176616  0.85038897  0.64028090    -0.12200
C3944       C  0.61224783  0.88259953  0.64496972     0.04800
C3945       C  0.61376464  0.90462278  0.62855900    -0.07500
C3946       C  0.61276426  0.89413661  0.60811323    -0.08300
C3947       C  0.61054524  0.86196953  0.60346950    -0.02800
C3948       C  0.61100241  0.83989101  0.61988122     0.04000
N3949       N  0.60851759  0.80677550  0.61633449     0.66500
H3950       H  0.61101599  0.83305860  0.65258872     0.15400
H3951       H  0.61278923  0.91144378  0.59578877     0.15100
N3952       N  0.61433958  0.93777689  0.63221661     0.74200
O3953       O  0.63343715  0.79012537  0.61683155    -0.39300
O3954       O  0.58162014  0.79358705  0.61806551    -0.39200
O3955       O  0.64028269  0.95257776  0.63002266    -0.39900
O3956       O  0.58841377  0.95288216  0.63219099    -0.40000
C3957       C  0.96111847  0.89699537  0.76123552    -0.12200
C3958       C  0.95772304  0.86581986  0.76840172     0.04800
C3959       C  0.98558090  0.84729781  0.77053149    -0.07500
C3960       C  0.50092351  0.85145077  0.74660216    -0.08300
C3961       C  0.51449149  0.87916097  0.75432478    -0.02800
C3962       C  0.99035123  0.90844275  0.75396678     0.04000
N3963       N  0.99160388  0.93943705  0.74534965     0.66500
H3964       H  0.94041852  0.91223246  0.76004497     0.15400
H3965       H  0.51292020  0.83865480  0.73434553     0.15100
N3966       N  0.98403667  0.81533029  0.77726531     0.74200
O3967       O  0.98305570  0.94355607  0.72692050    -0.39300
O3968       O  0.52540895  0.92316096  0.79554627    -0.39200
O3969       O  0.98611557  0.79380654  0.76395125    -0.39900
O3970       O  0.99034798  0.80900296  0.79582528    -0.40000
C3971       C  0.76432580  0.87356974  0.71982439    -0.12200
C3972       C  0.76454861  0.85459606  0.73765799     0.04800
C3973       C  0.73530082  0.84565197  0.74660962    -0.07500
C3974       C  0.70689900  0.85789069  0.73898849    -0.08300
C3975       C  0.70655207  0.87945722  0.72253257    -0.02800
C3976       C  0.73550930  0.88616505  0.71218691     0.04000
N3977       N  0.73671251  0.90848288  0.69570060     0.66500
H3978       H  0.78677762  0.88124058  0.71307413     0.15400
H3979       H  0.68487829  0.85183652  0.74695735     0.15100
N3980       N  0.73414183  0.82667436  0.76480533     0.74200
O3981       O  0.73987473  0.93734863  0.69980567    -0.39300
O3982       O  0.74237699  0.89900877  0.67762958    -0.39200
O3983       O  0.72814580  0.83968121  0.78185573    -0.39900
O3984       O  0.73017050  0.79734233  0.76305513    -0.40000
C3985       C  0.58442630  0.78409788  0.73929060    -0.12200
C3986       C  0.60701746  0.80028640  0.72738458     0.04800
C3987       C  0.63597767  0.78513579  0.72224508    -0.07500
C3988       C  0.64326765  0.75573027  0.73093994    -0.08300
C3989       C  0.62197788  0.74084382  0.74457244    -0.02800
C3990       C  0.59149725  0.75459318  0.74781917     0.04000
N3991       N  0.56745395  0.73917720  0.75986604     0.66500
H3992       H  0.56188336  0.79527393  0.74311076     0.15400
H3993       H  0.66621503  0.74507631  0.72757487     0.15100
N3994       N  0.65797104  0.79900372  0.70795518     0.74200
O3995       O  0.56349846  0.74704786  0.77845107    -0.39300
O3996       O  0.54539634  0.72466036  0.75072303    -0.39200
O3997       O  0.68632084  0.80405929  0.71351776    -0.39900
O3998       O  0.65186572  0.79762061  0.68894427    -0.40000
C3999       C  0.65885834  0.51110792  0.74226074    -0.12200
C4000       C  0.63431138  0.99284535  0.75291005     0.04800
C4001       C  0.63712191  0.99869218  0.77432333    -0.07500
C4002       C  0.64096437  0.52982814  0.78162402    -0.08300
C4003       C  0.65931658  0.55024256  0.76911899    -0.02800
C4004       C  0.66946867  0.53965112  0.74967535     0.04000
N4005       N  0.69099654  0.55741430  0.73700707     0.66500
H4006       H  0.66718233  0.50473361  0.72698329     0.15400
H4007       H  0.63369548  0.53733072  0.79690117     0.15100
N4008       N  0.63077667  0.97453717  0.78913420     0.74200
O4009       O  0.71861909  0.54648639  0.73401991    -0.39300
O4010       O  0.67962272  0.57613270  0.72380948    -0.39200
O4011       O  0.65389960  0.96059364  0.79756674    -0.39900
O4012       O  0.60345671  0.97287459  0.79734530    -0.40000
C4013       C  0.89626890  0.64617129  0.64151857    -0.12200
C4014       C  0.89550684  0.61414771  0.64664438     0.04800
C4015       C  0.89027985  0.59181833  0.63095971    -0.07500
C4016       C  0.88832572  0.60169733  0.61033874    -0.08300
C4017       C  0.89066697  0.63372392  0.60498845    -0.02800
C4018       C  0.89324624  0.65620134  0.62101653     0.04000
N4019       N  0.89457624  0.68921601  0.61678582     0.66500
H4020       H  0.90000247  0.66354263  0.65350403     0.15400
H4021       H  0.88588481  0.58407357  0.59837912     0.15100
N4022       N  0.88892680  0.55890483  0.63550618     0.74200
O4023       O  0.86958028  0.70547753  0.61888909    -0.39300
O4024       O  0.92133366  0.70288119  0.61617911    -0.39200
O4025       O  0.86219667  0.54516589  0.63566624    -0.39900
O4026       O  0.91407304  0.54267846  0.63423510    -0.40000
C4027       C  0.54644286  0.51214204  0.69099837    -0.12200
C4028       C  0.53863061  0.98277710  0.68974230     0.04800
C4029       C  0.00534514  0.97973137  0.68045905    -0.07500
C4030       C  0.98252235  0.00401870  0.68171539    -0.08300
C4031       C  0.98789238  0.52461578  0.68486529    -0.02800
C4032       C  0.52532988  0.53756268  0.69095094     0.04000
N4033       N  0.53820354  0.56854818  0.69310148     0.66500
H4034       H  0.57159999  0.51710447  0.69318046     0.15400
H4035       H  0.95786996  0.99866669  0.67807359     0.15100
N4036       N  0.99541834  0.94965982  0.67297159     0.74200
O4037       O  0.54582884  0.57824211  0.71078450    -0.39300
O4038       O  0.54935976  0.58236206  0.67738814    -0.39200
O4039       O  0.97734873  0.93264409  0.68394231    -0.39900
O4040       O  0.99776986  0.94401961  0.65393377    -0.40000
C4041       C  0.88048201  0.99951470  0.76820776    -0.12200
C4042       C  0.89404240  0.50504285  0.75512599     0.04800
C4043       C  0.86316520  0.98334806  0.73421315    -0.07500
C4044       C  0.85131191  0.95562968  0.74269119    -0.08300
C4045       C  0.85551480  0.94799075  0.76361820    -0.02800
C4046       C  0.86962265  0.97071197  0.77661584     0.04000
N4047       N  0.87452378  0.96456175  0.79800774     0.66500
H4048       H  0.86258094  0.52771236  0.77713794     0.15400
H4049       H  0.83974485  0.93924435  0.73230880     0.15100
N4050       N  0.92971766  0.47354377  0.73248425     0.74200
O4051       O  0.90092336  0.95338150  0.80376905    -0.39300
O4052       O  0.85654274  0.97759943  0.81109940    -0.39200
O4053       O  0.95929839  0.47250603  0.73595852    -0.39900
O4054       O  0.91938995  0.46403085  0.71534674    -0.40000
C4055       C  0.92468591  0.70797289  0.74940215    -0.12200
C4056       C  0.91683123  0.69859115  0.72936128     0.04800
C4057       C  0.89955557  0.71951874  0.71669373    -0.07500
C4058       C  0.88827195  0.74804882  0.72498646    -0.08300
C4059       C  0.89342342  0.75539785  0.74583123    -0.02800
C4060       C  0.91264763  0.73538960  0.75789847     0.04000
N4061       N  0.91953490  0.74194814  0.77906343     0.66500
H4062       H  0.93880184  0.69278182  0.75920608     0.15400
H4063       H  0.87417917  0.76370315  0.71543502     0.15100
N4064       N  0.89179706  0.71153443  0.69594921     0.74200
O4065       O  0.90143706  0.73080797  0.79288130    -0.39300
O4066       O  0.94735342  0.75040875  0.78393116    -0.39200
O4067       O  0.86426752  0.70123926  0.69190431    -0.39900
O4068       O  0.90942547  0.72134285  0.68146016    -0.40000
C4069       C  0.52475963  0.59637539  0.76263972    -0.12200
C4070       C  0.00421111  0.60389465  0.75796717     0.04800
C4071       C  0.50635403  0.64855114  0.77180966    -0.07500
C4072       C  0.53591475  0.65499673  0.78082426    -0.08300
C4073       C  0.56069928  0.63310217  0.77960595    -0.02800
C4074       C  0.55441143  0.60299009  0.77141436     0.04000
N4075       N  0.57805744  0.57897292  0.77155567     0.66500
H4076       H  0.52085231  0.57376056  0.75533034     0.15400
H4077       H  0.54039707  0.67828156  0.78701444     0.15100
N4078       N  0.97963277  0.63191424  0.78739290     0.74200
O4079       O  0.57788496  0.55964922  0.78635709    -0.39300
O4080       O  0.59117836  0.57125614  0.75476482    -0.39200
O4081       O  0.97255787  0.61772031  0.80391432    -0.39900
O4082       O  0.96841049  0.65903055  0.78424578    -0.40000
C4083       C  0.80297020  0.64027812  0.72683543    -0.12200
C4084       C  0.81236350  0.60851421  0.72839032     0.04800
C4085       C  0.79167751  0.58692697  0.73802864    -0.07500
C4086       C  0.76421290  0.59784654  0.74809534    -0.08300
C4087       C  0.75500067  0.62962627  0.74697442    -0.02800
C4088       C  0.77400208  0.65075490  0.73546287     0.04000
N4089       N  0.76564411  0.68324606  0.73375048     0.66500
H4090       H  0.81880062  0.65724753  0.71959272     0.15400
H4091       H  0.75006789  0.58143652  0.75707385     0.15100
N4092       N  0.79933279  0.55417610  0.73886152     0.74200
O4093       O  0.77511599  0.70233418  0.74729121    -0.39300
O4094       O  0.75578015  0.69372099  0.71670892    -0.39200
O4095       O  0.81448190  0.54329333  0.75403238    -0.39900
O4096       O  0.79460715  0.53706418  0.72328986    -0.40000
loop_ 
_geom_bond_atom_site_label_1 
_geom_bond_atom_site_label_2 
_geom_bond_distance 
_geom_bond_site_symmetry_2 
_ccdc_geom_bond_type 
O1          Cr19   2.031       .  S
O1            C9   1.277       .  A
O2          Cr19   1.972       .  S
O2            C3   1.252       .  A
C3            O4   1.259       .  A
C3          C970   1.491       .  S
O4          Cr20   2.009       .  S
O5          Cr20   1.971       .  S
O5            C6   1.261       .  A
C6            O7   1.267       .  A
C6          C998   1.458       .  S
O7          Cr21   2.010       .  S
O8          Cr21   1.985       .  S
O8            C9   1.266       .  A
C9          C959   1.507       .  S
O10         Cr19   1.977       .  S
O10          C18   1.255       .  A
O11         Cr19   2.057       .  S
O11          C12   1.280       .  A
C12          O13   1.253       .  A
C12        C1012   1.486       .  S
O13         Cr20   1.930       .  S
O14         Cr20   1.973       .  S
O14          C15   1.262       .  A
C15          O16   1.268       .  A
C15         C984   1.495       .  S
O16         Cr21   2.026       .  S
O17         Cr21   2.005       .  S
O17          C18   1.262       .  A
C18         C942   1.476       .  S
Cr19         O22   1.772       .  S
Cr20         O22   1.768       .  S
Cr21         O22   1.776       .  S
O23         Cr41   1.970       .  S
O23          C31   1.264       .  A
O24         Cr41   1.977       .  S
O24          C25   1.265       .  A
C25          O26   1.269       .  A
C25         C928   1.495       .  S
O26         Cr42   2.013       .  S
O27         Cr42   2.021       .  S
O27          C28   1.263       .  A
C28          O29   1.255       .  A
C28         C889   1.476       .  S
O29         Cr43   1.974       .  S
O30         Cr43   2.017       .  S
O30          C31   1.269       .  A
C31         C956   1.490       .  S
O32         Cr41   1.994       .  S
O32          C40   1.258       .  A
O33         Cr41   2.015       .  S
O33          C34   1.268       .  A
C34          O35   1.264       .  A
C34         C903   1.483       .  S
O35         Cr42   1.998       .  S
O36         Cr42   1.968       .  S
O36          C37   1.260       .  A
C37          O38   1.269       .  A
C37         C914   1.477       .  S
O38         Cr43   2.007       .  S
O39         Cr43   1.981       .  S
O39          C40   1.256       .  A
C40         C872   1.477       .  S
Cr41         O44   1.765       .  S
Cr42         O44   1.781       .  S
Cr43         O44   1.776       .  S
O45         Cr63   1.981       .  S
O45          C53   1.267       .  A
O46         Cr63   2.003       .  S
O46          C47   1.262       .  A
C47          O48   1.260       .  A
C47         C917   1.461       .  S
O48         Cr64   1.980       .  S
O49         Cr64   2.016       .  S
O49          C50   1.263       .  A
C50          O51   1.258       .  A
C50        C1015   1.483       .  S
O51         Cr65   1.986       .  S
O52         Cr65   2.036       .  S
O52          C53   1.281       .  A
C53         C861   1.499       .  S
O54         Cr63   1.996       .  S
O54          C62   1.258       .  A
O55         Cr63   1.996       .  S
O55          C56   1.267       .  A
C56          O57   1.267       .  A
C56        C1001   1.470       .  S
O57         Cr64   1.999       .  S
O58         Cr64   1.926       .  S
O58          C59   1.246       .  A
C59          O60   1.274       .  A
C59         C931   1.468       .  S
O60         Cr65   2.049       .  S
O61         Cr65   2.003       .  S
O61          C62   1.260       .  A
C62         C844   1.481       .  S
Cr63         O66   1.770       .  S
Cr64         O66   1.764       .  S
Cr65         O66   1.769       .  S
O67         Cr85   2.029       .  S
O67          C75   1.274       .  A
O68         Cr85   1.958       .  S
O68          C69   1.254       .  A
C69          O70   1.261       .  A
C69         C987   1.479       .  S
O70         Cr86   2.018       .  S
O71         Cr86   2.002       .  S
O71          C72   1.266       .  A
C72          O73   1.272       .  A
C72         C900   1.494       .  S
O73         Cr87   2.010       .  S
O74         Cr87   1.982       .  S
O74          C75   1.266       .  A
C75         C858   1.503       .  S
O76         Cr85   1.983       .  S
O76          C84   1.258       .  A
O77         Cr85   2.035       .  S
O77          C78   1.271       .  A
C78          O79   1.257       .  A
C78         C886   1.475       .  S
O79         Cr86   1.962       .  S
O80         Cr86   1.987       .  S
O80          C81   1.264       .  A
C81          O82   1.269       .  A
C81         C973   1.480       .  S
O82         Cr87   2.017       .  S
O83         Cr87   2.029       .  S
O83          C84   1.266       .  A
C84         C833   1.500       .  S
Cr85         O88   1.766       .  S
Cr86         O88   1.779       .  S
Cr87         O88   1.772       .  S
O89        Cr107   1.991       .  S
O89          C97   1.267       .  A
O90        Cr107   2.029       .  S
O90          C91   1.277       .  A
C91          O92   1.265   1_554  A
C91         C802   1.468   1_554  S
O92        Cr108   1.974   1_556  S
O93        Cr108   1.995   1_556  S
O93          C94   1.251   1_556  A
C94          O95   1.252       .  A
C94         C777   1.462   1_554  S
O95        Cr109   1.973       .  S
O96        Cr109   2.018       .  S
O96          C97   1.272       .  A
C97         C763   1.497       .  S
O98        Cr107   2.033       .  S
O98         C106   1.268       .  A
O99        Cr107   2.047       .  S
O99         C100   1.270       .  A
C100        O101   1.248       .  A
C100        C788   1.495       .  S
O101       Cr108   1.963       .  S
O102       Cr108   1.956       .  S
O102        C103   1.259       .  A
C103        O104   1.280       .  A
C103        C816   1.488       .  S
O104       Cr109   2.036       .  S
O105       Cr109   1.977       .  S
O105        C106   1.259       .  A
C106        C746   1.504       .  S
Cr107       O110   1.775       .  S
Cr108       O110   1.779       .  S
Cr109       O110   1.764       .  S
O111       Cr129   1.970       .  S
O111        C119   1.263       .  A
O112       Cr129   1.988       .  S
O112        C113   1.266       .  A
C113        O114   1.272   1_554  A
C113        C735   1.496   1_554  S
O114       Cr130   2.017   1_556  S
O115       Cr130   2.035       .  S
O115        C116   1.266       .  A
C116        O117   1.253       .  A
C116        C707   1.486   1_554  S
O117       Cr131   1.959       .  S
O118       Cr131   2.036       .  S
O118        C119   1.275       .  A
C119        C760   1.502       .  S
O120       Cr129   2.000       .  S
O120        C128   1.261       .  A
O121       Cr129   2.004       .  S
O121        C122   1.266       .  A
C122        O123   1.266       .  A
C122        C690   1.476       .  S
O123       Cr130   2.002       .  S
O124       Cr130   1.976       .  S
O124        C125   1.260       .  A
C125        O126   1.272       .  A
C125        C718   1.482       .  S
O126       Cr131   2.018       .  S
O127       Cr131   1.973       .  S
O127        C128   1.251       .  A
C128        C676   1.479       .  S
Cr129       O132   1.766       .  S
Cr130       O132   1.777       .  S
Cr131       O132   1.771       .  S
O133       Cr151   2.033       .  S
O133        C141   1.277       .  A
O134       Cr151   1.970       .  S
O134        C135   1.257       .  A
C135        O136   1.260   1_556  A
C135        C819   1.478   1_556  S
O136       Cr152   2.008   1_554  S
O137       Cr152   2.000   1_554  S
O137        C138   1.262   1_554  A
C138        O139   1.268       .  A
C138        C693   1.493   1_556  S
O139       Cr153   2.004       .  S
O140       Cr153   1.981       .  S
O140        C141   1.266       .  A
C141        C665   1.504       .  S
O142       Cr151   1.990       .  S
O142        C150   1.258       .  A
O143       Cr151   2.032       .  S
O143        C144   1.272       .  A
C144        O145   1.255       .  A
C144        C704   1.470       .  S
O145       Cr152   1.949       .  S
O146       Cr152   1.993       .  S
O146        C147   1.266       .  A
C147        O148   1.271       .  A
C147        C805   1.479       .  S
O148       Cr153   2.008       .  S
O149       Cr153   2.026       .  S
O149        C150   1.264       .  A
C150        C830   1.504       .  S
Cr151       O154   1.771       .  S
Cr152       O154   1.780       .  S
Cr153       O154   1.774       .  S
O155       Cr173   1.986       .  S
O155        C163   1.269       .  A
O156       Cr173   1.996       .  S
O156        C157   1.259       .  A
C157        O158   1.263   1_556  A
C157        C721   1.476   1_556  S
O158       Cr174   2.001   1_554  S
O159       Cr174   2.022       .  S
O159        C160   1.265       .  A
C160        O161   1.261       .  A
C160        C791   1.490   1_556  S
O161       Cr175   1.977       .  S
O162       Cr175   2.030       .  S
O162        C163   1.273       .  A
C163        C662   1.504       .  S
O164       Cr173   1.988       .  S
O164        C172   1.260       .  A
O165       Cr173   1.993       .  S
O165        C166   1.267       .  A
C166        O167   1.269       .  A
C166        C774   1.474       .  S
O167       Cr174   2.010       .  S
O168       Cr174   1.971       .  S
O168        C169   1.259       .  A
C169        O170   1.267       .  A
C169        C732   1.476       .  S
O170       Cr175   2.018       .  S
O171       Cr175   2.008       .  S
O171        C172   1.260       .  A
C172        C847   1.496       .  S
Cr173       O176   1.771       .  S
Cr174       O176   1.776       .  S
Cr175       O176   1.778       .  S
O177       Cr195   1.998       .  S
O177        C185   1.270       .  A
O178       Cr195   2.011       .  S
O178        C179   1.269       .  A
C179        O180   1.262       .  A
C179        C648   1.468       .  S
O180       Cr196   1.981       .  S
O181       Cr196   2.006       .  S
O181        C182   1.260       .  A
C182        O183   1.255       .  A
C182        C609   1.487       .  S
O183       Cr197   1.976       .  S
O184       Cr197   2.036       .  S
O184        C185   1.277       .  A
C185        C592   1.511       .  S
O186       Cr195   2.009       .  S
O186        C194   1.261       .  A
O187       Cr195   2.034       .  S
O187        C188   1.270       .  A
C188        O189   1.262       .  A
C188        C623   1.495       .  S
O189       Cr196   1.976       .  S
O190       Cr196   1.949       .  S
O190        C191   1.254       .  A
C191        O192   1.277       .  A
C191        C634   1.494       .  S
O192       Cr197   2.047       .  S
O193       Cr197   1.984       .  S
O193        C194   1.258       .  A
C194        C945   1.497       .  S
Cr195       O198   1.776       .  S
Cr196       O198   1.775       .  S
Cr197       O198   1.771       .  S
O199       Cr217   2.044       .  S
O199        C207   1.280       .  A
O200       Cr217   1.960       .  S
O200        C201   1.251       .  A
C201        O202   1.261       .  A
C201        C637   1.467       .  S
O202       Cr218   2.011       .  S
O203       Cr218   1.981       .  S
O203        C204   1.262       .  A
C204        O205   1.268       .  A
C204        C564   1.471       .  S
O205       Cr219   2.010       .  S
O206       Cr219   1.981       .  S
O206        C207   1.264       .  A
C207        C550   1.504       .  S
O208       Cr217   1.970       .  S
O208        C216   1.251       .  A
O209       Cr217   2.039       .  S
O209        C210   1.273       .  A
C210        O211   1.254       .  A
C210        C578   1.474       .  S
O211       Cr218   1.941       .  S
O212       Cr218   1.999       .  S
O212        C213   1.265       .  A
C213        O214   1.266       .  A
C213        C651   1.481       .  S
O214       Cr219   1.998       .  S
O215       Cr219   2.015       .  S
O215        C216   1.264       .  A
C216        C536   1.493       .  S
Cr217       O220   1.770       .  S
Cr218       O220   1.779       .  S
Cr219       O220   1.778       .  S
O221       Cr239   2.000       .  S
O221        C229   1.270       .  A
O222       Cr239   1.991       .  S
O222        C223   1.265       .  A
C223        O224   1.268       .  A
C223        C522   1.480       .  S
O224       Cr240   2.005       .  S
O225       Cr240   2.020       .  S
O225        C226   1.262       .  A
C226        O227   1.255       .  A
C226        C620   1.482       .  S
O227       Cr241   1.967       .  S
O228       Cr241   2.006       .  S
O228        C229   1.267       .  A
C229        C553   1.494       .  S
O230       Cr239   1.992       .  S
O230        C238   1.260       .  A
O231       Cr239   2.021       .  S
O231        C232   1.268       .  A
C232        O233   1.261       .  A
C232        C606   1.483       .  S
O233       Cr240   1.992       .  S
O234       Cr240   1.977       .  S
O234        C235   1.260       .  A
C235        O236   1.266       .  A
C235        C511   1.468       .  S
O236       Cr241   2.004       .  S
O237       Cr241   1.982       .  S
O237        C238   1.256       .  A
C238        C494   1.472       .  S
Cr239       O242   1.772       .  S
Cr240       O242   1.780       .  S
Cr241       O242   1.780       .  S
O243       Cr261   1.994       .  S
O243        C251   1.268       .  A
O244       Cr261   1.997       .  S
O244        C245   1.265       .  A
C245        O246   1.267       .  A
C245        C508   1.474       .  S
O246       Cr262   1.991       .  S
O247       Cr262   2.019       .  S
O247        C248   1.261       .  A
C248        O249   1.255       .  A
C248        C581   1.477       .  S
O249       Cr263   1.966       .  S
O250       Cr263   2.012       .  S
O250        C251   1.271       .  A
C251        C595   1.500       .  S
O252       Cr261   2.007       .  S
O252        C260   1.260       .  A
O253       Cr261   2.021       .  S
O253        C254   1.269       .  A
C254        O255   1.263       .  A
C254        C567   1.483       .  S
O255       Cr262   1.983       .  S
O256       Cr262   1.969       .  S
O256        C257   1.261       .  A
C257        O258   1.270       .  A
C257        C525   1.482       .  S
O258       Cr263   2.027       .  S
O259       Cr263   1.971       .  S
O259        C260   1.258       .  A
C260        C875   1.489       .  S
Cr261       O264   1.775       .  S
Cr262       O264   1.771       .  S
Cr263       O264   1.761       .  S
O265       Cr283   2.030       .  S
O265        C273   1.273       .  A
O266       Cr283   1.962       .  S
O266        C267   1.254       .  A
C267        O268   1.266       .  A
C267        C469   1.489       .  S
O268       Cr284   2.033       .  S
O269       Cr284   1.987       .  S
O269        C270   1.266       .  A
C270        O271   1.269       .  A
C270        C438   1.469       .  S
O271       Cr285   2.006       .  S
O272       Cr285   1.991       .  S
O272        C273   1.266       .  A
C273        C424   1.508       .  S
O274       Cr283   1.967       .  S
O274        C282   1.250       .  A
O275       Cr283   2.008       .  S
O275        C276   1.270       .  A
C276        O277   1.258       .  A
C276        C452   1.472       .  S
O277       Cr284   1.967       .  S
O278       Cr284   1.998       .  S
O278        C279   1.263       .  A
C279        O280   1.269       .  A
C279        C483   1.491       .  S
O280       Cr285   2.022       .  S
O281       Cr285   2.018       .  S
O281        C282   1.265       .  A
C282        C539   1.483       .  S
Cr283       O286   1.770       .  S
Cr284       O286   1.776       .  S
Cr285       O286   1.771       .  S
O287       Cr305   2.027       .  S
O287        C295   1.274       .  A
O288       Cr305   1.963       .  S
O288        C289   1.252       .  A
C289        O290   1.259       .  A
C289        C396   1.479       .  S
O290       Cr306   2.008       .  S
O291       Cr306   1.990       .  S
O291        C292   1.266       .  A
C292        O293   1.265       .  A
C292        C455   1.468       .  S
O293       Cr307   2.002       .  S
O294       Cr307   1.992       .  S
O294        C295   1.270       .  A
C295        C382   1.507       .  S
O296       Cr305   1.976       .  S
O296        C304   1.254       .  A
O297       Cr305   2.034       .  S
O297        C298   1.273       .  A
C298        O299   1.255       .  A
C298        C441   1.472       .  S
O299       Cr306   1.944       .  S
O300       Cr306   1.973       .  S
O300        C301   1.262       .  A
C301        O302   1.268       .  A
C301        C410   1.487       .  S
O302       Cr307   2.023       .  S
O303       Cr307   1.993       .  S
O303        C304   1.257       .  A
C304        C679   1.471       .  S
Cr305       O308   1.775       .  S
Cr306       O308   1.772       .  S
Cr307       O308   1.773       .  S
O309       Cr327   2.039       .  S
O309        C317   1.276       .  A
O310       Cr327   1.953       .  S
O310        C311   1.252       .  A
C311        O312   1.262       .  A
C311        C413   1.475       .  S
O312       Cr328   2.018       .  S
O313       Cr328   1.979       .  S
O313        C314   1.262       .  A
C314        O315   1.270       .  A
C314        C357   1.466       .  S
O315       Cr329   2.013       .  S
O316       Cr329   1.977       .  S
O316        C317   1.266       .  A
C317        C427   1.503       .  S
O318       Cr327   1.965       .  S
O318        C326   1.253       .  A
O319       Cr327   2.034       .  S
O319        C320   1.275       .  A
C320        O321   1.257       .  A
C320        C368   1.489       .  S
O321       Cr328   1.965       .  S
O322       Cr328   1.984       .  S
O322        C323   1.263       .  A
C323        O324   1.268       .  A
C323        C399   1.489       .  S
O324       Cr329   2.019       .  S
O325       Cr329   2.014       .  S
O325        C326   1.262       .  A
C326        C497   1.482       .  S
Cr327       O330   1.760       .  S
Cr328       O330   1.771       .  S
Cr329       O330   1.772       .  S
O331       Cr349   1.973       .  S
O331        C339   1.262       .  A
O332       Cr349   2.004       .  S
O332        C333   1.270       .  A
C333        O334   1.268       .  A
C333        C480   1.503       .  S
O334       Cr350   2.009       .  S
O335       Cr350   2.032       .  S
O335        C336   1.266       .  A
C336        O337   1.255       .  A
C336        C371   1.484       .  S
O337       Cr351   1.970       .  S
O338       Cr351   2.042       .  S
O338        C339   1.280       .  A
C339        C385   1.505       .  S
O340       Cr349   2.024       .  S
O340        C348   1.265       .  A
O341       Cr349   1.998       .  S
O341        C342   1.266       .  A
C342        O343   1.267       .  A
C342        C354   1.471       .  S
O343       Cr350   1.996       .  S
O344       Cr350   1.953       .  S
O344        C345   1.253       .  A
C345        O346   1.274       .  A
C345        C466   1.474       .  S
O346       Cr351   2.041       .  S
O347       Cr351   1.988       .  S
O347        C348   1.257       .  A
C348        C749   1.503       .  S
Cr349       O352   1.773       .  S
Cr350       O352   1.777       .  S
Cr351       O352   1.769       .  S
C353        C354   1.403       .  A
C353        C358   1.395       .  A
C353        H360   1.085       .  S
C354        C355   1.409       .  A
C355       C2404   1.403       .  A
C355        N362   1.428       .  S
C356        C357   1.405       .  A
C356       C2403   1.405   1_455  A
C356        H361   1.085       .  S
C357       C2406   1.403   1_455  A
C358       C2405   1.404       .  A
C358        N359   1.427       .  S
N359        O363   1.261       .  A
N359       O2412   1.262       .  A
N362       O2414   1.262       .  A
N362        O365   1.262       .  A
O364       N2407   1.262       .  A
O366       N2410   1.262       .  A
C367        C368   1.400       .  A
C367        C372   1.403       .  A
C367        H374   1.084       .  S
C368        C369   1.418       .  A
C369        C370   1.403       .  A
C369        N376   1.428       .  S
C370        C371   1.401       .  A
C370        H375   1.084       .  S
C371        C372   1.415       .  A
C372        N373   1.425       .  S
N373        O377   1.262       .  A
N373        O378   1.262       .  A
N376        O380   1.262       .  A
N376        O379   1.261       .  A
C381        C382   1.406       .  A
C381        C386   1.406       .  A
C381        H388   1.085       .  S
C382        C383   1.419       .  A
C383        C384   1.408       .  A
C383        N390   1.425       .  S
C384        C385   1.405       .  A
C384        H389   1.085       .  S
C385        C386   1.420       .  A
C386        N387   1.429       .  S
N387        O391   1.262       .  A
N387        O392   1.262       .  A
N390        O394   1.261       .  A
N390        O393   1.262       .  A
C395        C396   1.407       .  A
C395        C400   1.411       .  A
C395        H402   1.084       .  S
C396        C397   1.410       .  A
C397        C398   1.388       .  A
C397        N404   1.431       .  S
C398        C399   1.406       .  A
C398        H403   1.085       .  S
C399        C400   1.415       .  A
C400        N401   1.428       .  S
N401        O405   1.261       .  A
N401        O406   1.262       .  A
N404        O408   1.261       .  A
N404        O407   1.261       .  A
C409        C410   1.401       .  A
C409       C1438   1.380       .  A
C409        H416   1.098       .  S
C410        C411   1.414       .  A
C411        C412   1.409       .  A
C411        N418   1.423       .  S
C412       C1437   1.403       .  A
C412        H417   1.090       .  S
C413        C414   1.407   1_545  A
C413       C1436   1.403       .  A
C414       C1433   1.385       .  A
C414        N415   1.432       .  S
N415        O419   1.261       .  A
N415        O420   1.262   1_565  A
N418        O422   1.262       .  A
N418        O421   1.262       .  A
C423        C428   1.410       .  A
C423       C2472   1.410   1_455  A
C423        H430   1.084       .  S
C424       C2471   1.407       .  A
C424       C1449   1.415       .  A
C425        C426   1.405       .  A
C425       C1448   1.414   1_545  A
C425        N432   1.426       .  S
C426       C2475   1.406       .  A
C426        H431   1.084       .  S
C427       C2474   1.406   1_455  A
C427       C1452   1.415   1_545  A
C428       C1451   1.416       .  A
C428        N429   1.426       .  S
N429        O433   1.262       .  A
N429        O434   1.262       .  A
N432        O436   1.261       .  A
N432        O435   1.262       .  A
C437        C442   1.395       .  A
C437       C2486   1.406       .  A
C437        H444   1.085   1_455  S
C438        C439   1.400       .  A
C438       C2485   1.404       .  A
C439       C2488   1.388       .  A
C439        N446   1.426       .  S
C440        C441   1.410       .  A
C440       C2487   1.402       .  A
C440        H445   1.085       .  S
C441        C442   1.405       .  A
C442        N443   1.428       .  S
N443        O447   1.262       .  A
N443        O448   1.262       .  A
N446        O450   1.262       .  A
N446        O449   1.261       .  A
C451        C452   1.394       .  A
C451        C456   1.390       .  A
C451        H458   1.085       .  S
C452        C453   1.415       .  A
C453        C454   1.402       .  A
C453        N460   1.426       .  S
C454        C455   1.397       .  A
C454        H459   1.085       .  S
C455        C456   1.414       .  A
C456        N457   1.425       .  S
N457        O461   1.262       .  A
N457        O462   1.262       .  A
N460        O464   1.261       .  A
N460        O463   1.262       .  A
C465        C466   1.397       .  A
C465        C470   1.392       .  A
C465        H472   1.083       .  S
C466        C467   1.411       .  A
C467        C468   1.411       .  A
C467        N474   1.427       .  S
C468       C1493   1.406   1_545  A
C468       H1497   1.084   1_545  S
C469       C1492   1.407       .  A
C469       C1494   1.415       .  A
C470       C1493   1.413   1_545  A
C470       N1495   1.431       .  S
N471       C1494   1.432       .  S
N471       O1499   1.262       .  A
N471        O476   1.262       .  A
H473       C1492   1.085       .  S
N474        O478   1.262       .  A
N474        O477   1.262       .  A
O475       N1495   1.261       .  A
C479        C480   1.406       .  A
C479        C484   1.392       .  A
C479        H486   1.084       .  S
C480        C481   1.419       .  A
C481        C482   1.418       .  A
C481        N488   1.428       .  S
C482        C483   1.408       .  A
C482        H487   1.084       .  S
C483        C484   1.409       .  A
C484        N485   1.429       .  S
N485        O489   1.262       .  A
N485        O490   1.262       .  A
N488        O492   1.262       .  A
N488        O491   1.262       .  A
C493        C494   1.400       .  A
C493        C498   1.399       .  A
C493        H500   1.085       .  S
C494        C495   1.409       .  A
C495        C496   1.401       .  A
C495        N502   1.429       .  S
C496        C497   1.407       .  A
C496        H501   1.084       .  S
C497        C498   1.414       .  A
C498        N499   1.429       .  S
N499        O503   1.262       .  A
N499        O504   1.262       .  A
N502        O506   1.262       .  A
N502        O505   1.262       .  A
C507        C508   1.402       .  A
C507        C512   1.408       .  A
C507        H514   1.084       .  S
C508        C509   1.415       .  A
C509        C510   1.392       .  A
C509        N516   1.431       .  S
C510        C511   1.396       .  A
C510        H515   1.085       .  S
C511        C512   1.415       .  A
C512        N513   1.438       .  S
N513        O517   1.263       .  A
N513        O518   1.263       .  A
N516        O520   1.262       .  A
N516        O519   1.262       .  A
C521        C526   1.401       .  A
C521       C1546   1.408       .  A
C521       H1552   1.086       .  S
C522       C1545   1.408   1_545  A
C522       C1547   1.407   1_545  A
C523        C524   1.404       .  A
C523       C1546   1.406       .  A
C523       N1554   1.427       .  S
C524        C525   1.408       .  A
C524        H529   1.085       .  S
C525        C526   1.410       .  A
C526        N527   1.430       .  S
N527        O531   1.262       .  A
N527        O532   1.262       .  A
H528       C1545   1.085   1_545  S
N530       C1547   1.427       .  S
N530       O1558   1.261       .  A
N530        O533   1.262   1_565  A
O534       N1554   1.261       .  A
C535        C536   1.405       .  A
C535        C540   1.403       .  A
C535        H542   1.084       .  S
C536        C537   1.420       .  A
C537        C538   1.401       .  A
C537        N544   1.429       .  S
C538        C539   1.400       .  A
C538        H543   1.085       .  S
C539        C540   1.414       .  A
C540        N541   1.429       .  S
N541        O545   1.262       .  A
N541        O546   1.262       .  A
N544        O548   1.262       .  A
N544        O547   1.262       .  A
C549        C554   1.405       .  A
C549       C1574   1.402   1_545  A
C549        H556   1.085       .  S
C550        C551   1.424       .  A
C550       C1573   1.401       .  A
C551        C552   1.419       .  A
C551        N558   1.439       .  S
C552       C1577   1.406       .  A
C552        H557   1.083       .  S
C553        C554   1.418       .  A
C553       C1576   1.402   1_545  A
C554        N555   1.427       .  S
N555        O559   1.261       .  A
N555        O560   1.262       .  A
N558        O562   1.263       .  A
N558        O561   1.263       .  A
C563        C564   1.407       .  A
C563        C568   1.411       .  A
C563        H570   1.084       .  S
C564        C565   1.403       .  A
C565        C566   1.389       .  A
C565        N572   1.427       .  S
C566        C567   1.405       .  A
C566        H571   1.085       .  S
C567        C568   1.412       .  A
C568        N569   1.427       .  S
N569        O573   1.262       .  A
N569        O574   1.262       .  A
N572        O576   1.261       .  A
N572        O575   1.262       .  A
C577        C578   1.405       .  A
C577       C2630   1.412       .  A
C577        H584   1.084       .  S
C578        C579   1.409       .  A
C579       C2628   1.389       .  A
C579        N586   1.431       .  S
C580        C581   1.400   1_655  A
C580       C2627   1.390       .  A
C580        H585   1.086       .  S
C581        C582   1.413   1_455  A
C582       C2625   1.410       .  A
C582        N583   1.428   1_655  S
N583        O587   1.262       .  A
N583        O588   1.262       .  A
N586        O590   1.261       .  A
N586        O589   1.261       .  A
C591        C596   1.410       .  A
C591       C2640   1.408   1_455  A
C591        H598   1.080       .  S
C592        C593   1.416       .  A
C592       C2639   1.411       .  A
C593       C2642   1.408       .  A
C593        N600   1.428       .  S
C594        C595   1.408   1_655  A
C594       C2641   1.404       .  A
C594       H2647   1.084       .  S
C595        C596   1.415       .  A
C596        N597   1.430       .  S
N597        O601   1.262       .  A
N597        O602   1.262       .  A
H599       C2642   1.083       .  S
N600        O604   1.261       .  A
N600        O603   1.262       .  A
C605        C606   1.400       .  A
C605        C610   1.394       .  A
C605        H612   1.085       .  S
C606        C607   1.412       .  A
C607       C2656   1.412   1_455  A
C607        N614   1.427       .  S
C608        C609   1.410       .  A
C608       C2655   1.410       .  A
C608        H613   1.085       .  S
C609       C2658   1.410       .  A
C610       C2657   1.409   1_455  A
C610        N611   1.426       .  S
N611        O615   1.260       .  A
N611        O616   1.262       .  A
N614        O618   1.262       .  A
N614        O617   1.262       .  A
C619        C620   1.410       .  A
C619        C624   1.419       .  A
C619        H626   1.084       .  S
C620        C621   1.407       .  A
C621        C622   1.385       .  A
C621        N628   1.431       .  S
C622        C623   1.404       .  A
C622        H627   1.083       .  S
C623        C624   1.416       .  A
C624        N625   1.429       .  S
N625        O629   1.261       .  A
N625        O630   1.261       .  A
N628        O632   1.262       .  A
N628        O631   1.262       .  A
C633        C634   1.408       .  A
C633       C1662   1.408   1_545  A
C633        H640   1.083       .  S
C634        C635   1.424       .  A
C635        C636   1.395       .  A
C635        N642   1.429       .  S
C636       C1661   1.391   1_545  A
C636        H641   1.085       .  S
C637        C638   1.411       .  A
C637       C1660   1.395       .  A
C638       C1657   1.401       .  A
C638        N639   1.429       .  S
N639        O643   1.262       .  A
N639        O644   1.261       .  A
N642        O646   1.261       .  A
N642        O645   1.262       .  A
C647        C648   1.390       .  A
C647        C652   1.392       .  A
C647        H654   1.084       .  S
C648        C649   1.412       .  A
C649        C650   1.407       .  A
C649        N656   1.427       .  S
C650        C651   1.403       .  A
C650        H655   1.085       .  S
C651        C652   1.415       .  A
C652        N653   1.425       .  S
N653        O657   1.262       .  A
N653        O658   1.261       .  A
N656        O660   1.262       .  A
N656        O659   1.261       .  A
C661        C662   1.405       .  A
C661        C666   1.403       .  A
C661        H668   1.085       .  S
C662       C2711   1.419       .  A
C663        C664   1.410       .  A
C663       C2710   1.420       .  A
C663        N670   1.429       .  S
C664        C665   1.408       .  A
C664        H669   1.084       .  S
C665       C2714   1.418       .  A
C666       C2713   1.420   1_455  A
C666        N667   1.429       .  S
N667        O671   1.262       .  A
N667        O672   1.262       .  A
N670        O674   1.262       .  A
N670        O673   1.262       .  A
C675        C676   1.402       .  A
C675        C680   1.396       .  A
C675        H682   1.085       .  S
C676        C677   1.414       .  A
C677        C678   1.401       .  A
C677        N684   1.428       .  S
C678        C679   1.401       .  A
C678        H683   1.085       .  S
C679        C680   1.407       .  A
C680        N681   1.424       .  S
N681        O685   1.262       .  A
N681        O686   1.261       .  A
N684        O688   1.262       .  A
N684        O687   1.262       .  A
C689        C690   1.405       .  A
C689        C694   1.413       .  A
C689        H696   1.083       .  S
C690        C691   1.406       .  A
C691       C2740   1.386       .  A
C691        N698   1.426       .  S
C692        C693   1.403       .  A
C692       C2739   1.391       .  A
C692        H697   1.085   1_554  S
C693       C2742   1.417       .  A
C694       C2741   1.416   1_455  A
C694        N695   1.428   1_455  S
N695        O699   1.262   1_655  A
N695        O700   1.262       .  A
N698        O702   1.262       .  A
N698        O701   1.262   1_554  A
C703        C704   1.395   1_554  A
C703        C708   1.391       .  A
C703        H710   1.082       .  S
C704        C705   1.408       .  A
C705        C706   1.414       .  A
C705        N712   1.428       .  S
C706        C707   1.410       .  A
C706        H711   1.083       .  S
C707        C708   1.415   1_556  A
C708        N709   1.430       .  S
N709        O713   1.261       .  A
N709        O714   1.261       .  A
N712        O716   1.262       .  A
N712        O715   1.262       .  A
C717        C718   1.398       .  A
C717        C722   1.397       .  A
C717        H724   1.084       .  S
C718        C719   1.416       .  A
C719        C720   1.403       .  A
C719        N726   1.425       .  S
C720        C721   1.398       .  A
C720        H725   1.085       .  S
C721        C722   1.414       .  A
C722        N723   1.427       .  S
N723        O727   1.261   1_554  A
N723        O728   1.262       .  A
N726        O730   1.262       .  A
N726        O729   1.261       .  A
C731        C732   1.405       .  A
C731       C1760   1.412       .  A
C731        H738   1.076       .  S
C732        C733   1.397       .  A
C733        C734   1.392       .  A
C733        N740   1.427       .  S
C734       C1759   1.410   1_545  A
C734        H739   1.079   1_556  S
C735        C736   1.414       .  A
C735       C1758   1.410   1_556  A
C736       C1755   1.414       .  A
C736        N737   1.428       .  S
N737        O741   1.262       .  A
N737        O742   1.262       .  A
N740        O744   1.261   1_556  A
N740        O743   1.261       .  A
C745        C746   1.407       .  A
C745        C750   1.405       .  A
C745        H752   1.085       .  S
C746        C747   1.418       .  A
C747        C748   1.412       .  A
C747        N754   1.429       .  S
C748        C749   1.410       .  A
C748        H753   1.085       .  S
C749        C750   1.414       .  A
C750        N751   1.428       .  S
N751        O755   1.262       .  A
N751        O756   1.262       .  A
N754        O758   1.262       .  A
N754        O757   1.262       .  A
C759        C764   1.404       .  A
C759       C1784   1.408   1_545  A
C759        H766   1.084       .  S
C760        C761   1.415       .  A
C760       C1783   1.411       .  A
C761        C762   1.405       .  A
C761        N768   1.427       .  S
C762       C1787   1.406       .  A
C762        H767   1.085       .  S
C763        C764   1.413       .  A
C763       C1786   1.406   1_545  A
C764        N765   1.427       .  S
N765        O769   1.260       .  A
N765        O770   1.262       .  A
N768        O772   1.262       .  A
N768        O771   1.262       .  A
C773        C774   1.403       .  A
C773        C778   1.404       .  A
C773        H780   1.093       .  S
C774        C775   1.409       .  A
C775        C776   1.391       .  A
C775        N782   1.420       .  S
C776        C777   1.389       .  A
C776        H781   1.090       .  S
C777        C778   1.408       .  A
C778        N779   1.429       .  S
N779        O783   1.262       .  A
N779        O784   1.262   1_556  A
N782        O786   1.262       .  A
N782        O785   1.261       .  A
C787        C788   1.408       .  A
C787       C2840   1.419       .  A
C787        H794   1.084       .  S
C788        C789   1.420   1_554  A
C789        C790   1.386       .  A
C789        N796   1.430       .  S
C790       C2839   1.395   1_556  A
C790       H2843   1.086       .  S
C791        C792   1.418       .  A
C791       C2838   1.397   1_454  A
C792       C2835   1.417   1_455  A
C792        N793   1.427       .  S
N793        O797   1.262       .  A
N793        O798   1.262       .  A
H795       C2838   1.086   1_455  S
N796        O800   1.262       .  A
N796        O799   1.262       .  A
C801        C802   1.403       .  A
C801       C1830   1.403   1_545  A
C801        H808   1.080       .  S
C802       C1827   1.400   1_545  A
C803        C804   1.399       .  A
C803       C1826   1.402       .  A
C803        N810   1.430   1_556  S
C804        C805   1.409       .  A
C804        H809   1.084       .  S
C805        C806   1.409       .  A
C806       C1825   1.405       .  A
C806        N807   1.428       .  S
N807       O1835   1.262       .  A
N807        O812   1.262       .  A
N810        O814   1.262       .  A
N810       O1837   1.262       .  A
O811       N1831   1.262       .  A
O813       N1834   1.262   1_556  A
C815        C816   1.403       .  A
C815        C820   1.401       .  A
C815        H822   1.084       .  S
C816        C817   1.420       .  A
C817        C818   1.396       .  A
C817        N824   1.428       .  S
C818        C819   1.398       .  A
C818        H823   1.085   1_554  S
C819        C820   1.413       .  A
C820        N821   1.426       .  S
N821        O825   1.262       .  A
N821        O826   1.262       .  A
N824        O828   1.261       .  A
N824        O827   1.262   1_554  A
C829        C830   1.408       .  A
C829        C834   1.409       .  A
C829        H836   1.084       .  S
C830        C831   1.418       .  A
C831        C832   1.407       .  A
C831        N838   1.428       .  S
C832        C833   1.406       .  A
C832        H837   1.084       .  S
C833        C834   1.416       .  A
C834        N835   1.429       .  S
N835        O839   1.262       .  A
N835        O840   1.262       .  A
N838        O842   1.262       .  A
N838        O841   1.262       .  A
C843        C844   1.404       .  A
C843        C848   1.412       .  A
C843        H850   1.084       .  S
C844        C845   1.409       .  A
C845        C846   1.395       .  A
C845        N852   1.430       .  S
C846        C847   1.407       .  A
C846        H851   1.084       .  S
C847        C848   1.417       .  A
C848        N849   1.427       .  S
N849        O853   1.262       .  A
N849        O854   1.262       .  A
N852        O856   1.262       .  A
N852        O855   1.262       .  A
C857        C858   1.409       .  A
C857        C862   1.406       .  A
C857        H864   1.084       .  S
C858        C859   1.417       .  A
C859        C860   1.403       .  A
C859        N866   1.425       .  S
C860        C861   1.403       .  A
C860        H865   1.084       .  S
C861        C862   1.417       .  A
C862        N863   1.429       .  S
N863        O867   1.261       .  A
N863        O868   1.262       .  A
N866        O870   1.261       .  A
N866        O869   1.262       .  A
C871        C872   1.401       .  A
C871        C876   1.404       .  A
C871        H878   1.085       .  S
C872        C873   1.411       .  A
C873        C874   1.395       .  A
C873        N880   1.429       .  S
C874        C875   1.404       .  A
C874        H879   1.085       .  S
C875        C876   1.419       .  A
C876        N877   1.429       .  S
N877        O881   1.262       .  A
N877        O882   1.262       .  A
N880        O884   1.262       .  A
N880        O883   1.262       .  A
C885        C886   1.406       .  A
C885        C890   1.404       .  A
C885        H892   1.085       .  S
C886        C887   1.410       .  A
C887       C2936   1.400       .  A
C887        N894   1.429       .  S
C888        C889   1.402       .  A
C888       C2935   1.401   1_455  A
C888        H893   1.086       .  S
C889       C2938   1.407   1_455  A
C890       C2937   1.407       .  A
C890        N891   1.428       .  S
N891        O895   1.261       .  A
N891       O2944   1.262       .  A
N894        O898   1.262       .  A
N894        O897   1.262       .  A
O896       N2939   1.262       .  A
C899        C900   1.404       .  A
C899        C904   1.392       .  A
C899        H906   1.085       .  S
C900        C901   1.417       .  A
C901        C902   1.416       .  A
C901        N908   1.428       .  S
C902        C903   1.405       .  A
C902        H907   1.082       .  S
C903        C904   1.408       .  A
C904        N905   1.428       .  S
N905        O909   1.262       .  A
N905        O910   1.262       .  A
N908        O912   1.262       .  A
N908        O911   1.262       .  A
C913        C914   1.402       .  A
C913        C918   1.397       .  A
C913        H920   1.084       .  S
C914        C915   1.416       .  A
C915        C916   1.396       .  A
C915        N922   1.426       .  S
C916        C917   1.394       .  A
C916        H921   1.085       .  S
C917        C918   1.409       .  A
C918        N919   1.429       .  S
N919        O923   1.262       .  A
N919        O924   1.262       .  A
N922        O926   1.261       .  A
N922        O925   1.262       .  A
C927        C932   1.383       .  A
C927       C1952   1.402   1_545  A
C927        H934   1.085       .  S
C928        C929   1.415       .  A
C928       C1951   1.408       .  A
C929       C1954   1.416       .  A
C929        N936   1.428       .  S
C930        C931   1.406       .  A
C930       C1953   1.414       .  A
C930        H935   1.084       .  S
C931        C932   1.412       .  A
C932        N933   1.433       .  S
N933        O937   1.262       .  A
N933        O938   1.262       .  A
N936        O940   1.262       .  A
N936        O939   1.262       .  A
C941        C942   1.397       .  A
C941        C946   1.403       .  A
C941        H948   1.085       .  S
C942        C943   1.410       .  A
C943        C944   1.404       .  A
C943        N950   1.429       .  S
C944        C945   1.408       .  A
C944        H949   1.084       .  S
C945        C946   1.420       .  A
C946        N947   1.428       .  S
N947        O951   1.262       .  A
N947        O952   1.262       .  A
N950        O954   1.262       .  A
N950        O953   1.262       .  A
C955        C960   1.398       .  A
C955       C1980   1.403   1_545  A
C955        H962   1.085       .  S
C956       C1979   1.404       .  A
C956       C3005   1.416   1_455  A
C957        C958   1.406       .  A
C957       C3004   1.415       .  A
C957        N964   1.429       .  S
C958       C1983   1.408       .  A
C958        H963   1.084       .  S
C959       C1982   1.408       .  A
C959       C3008   1.420       .  A
C960       C3007   1.420   1_455  A
C960        N961   1.429       .  S
N961        O965   1.261       .  A
N961        O966   1.262       .  A
N964        O968   1.262       .  A
N964        O967   1.262       .  A
C969        C974   1.407       .  A
C969       C1994   1.411       .  A
C969       H2000   1.083       .  S
C970       C1993   1.412       .  A
C970       C1995   1.414   1_545  A
C971        C972   1.394       .  A
C971       C1994   1.411       .  A
C971       N2002   1.429       .  S
C972        C973   1.405       .  A
C972        H977   1.085       .  S
C973        C974   1.408       .  A
C974        N975   1.428       .  S
N975        O979   1.262       .  A
N975        O980   1.262       .  A
H976       C1993   1.084       .  S
N978       C1995   1.431       .  S
N978        O982   1.262       .  A
N978        O981   1.262       .  A
C983        C984   1.406       .  A
C983        C988   1.380       .  A
C983        H990   1.081       .  S
C984        C985   1.416       .  A
C985        C986   1.417       .  A
C985        N992   1.427       .  S
C986        C987   1.410       .  A
C986        H991   1.084       .  S
C987        C988   1.406       .  A
C988        N989   1.433       .  S
N989        O993   1.260       .  A
N989        O994   1.261       .  A
N992        O996   1.262       .  A
N992        O995   1.262       .  A
C997       C1002   1.400       .  A
C997       C3046   1.394   1_455  A
C997       H1004   1.085       .  S
C998       C3045   1.394       .  A
C998       C3047   1.412       .  A
C999       C1000   1.398       .  A
C999       C3046   1.414   1_455  A
C999       N3054   1.425   1_455  S
C1000      C1001   1.394       .  A
C1000      H1005   1.085       .  S
C1001      C1002   1.415       .  A
C1002      N1003   1.426       .  S
N1003      O1007   1.261       .  A
N1003      O1008   1.262       .  A
N1006      C3047   1.427       .  S
N1006      O1010   1.262       .  A
N1006      O1009   1.262       .  A
C1011      C1012   1.411       .  A
C1011      C1016   1.400       .  A
C1011      H1018   1.085       .  S
C1012      C1013   1.406       .  A
C1013      C1014   1.408       .  A
C1013      N1020   1.429       .  S
C1014      C1015   1.410       .  A
C1014      H1019   1.082       .  S
C1015      C1016   1.406       .  A
C1016      N1017   1.429       .  S
N1017      O1021   1.262       .  A
N1017      O1022   1.262       .  A
N1020      O1024   1.262       .  A
N1020      O1023   1.262       .  A
O1025     Cr1043   2.015       .  S
O1025      C1033   1.271       .  A
O1026     Cr1043   1.985       .  S
O1026      C1027   1.258       .  A
C1027      O1028   1.260       .  A
C1027      C1994   1.488       .  S
O1028     Cr1044   1.999       .  S
O1029     Cr1044   1.975       .  S
O1029      C1030   1.261       .  A
C1030      O1031   1.269       .  A
C1030      C2022   1.467       .  S
O1031     Cr1045   2.023       .  S
O1032     Cr1045   1.978       .  S
O1032      C1033   1.265       .  A
C1033      C1983   1.491       .  S
O1034     Cr1043   1.988       .  S
O1034      C1042   1.259       .  A
O1035     Cr1043   2.032       .  S
O1035      C1036   1.272       .  A
C1036      O1037   1.253       .  A
C1036      C2036   1.470       .  S
O1037     Cr1044   1.948       .  S
O1038     Cr1044   1.963       .  S
O1038      C1039   1.260       .  A
C1039      O1040   1.266       .  A
C1039      C2008   1.481       .  S
O1040     Cr1045   2.017       .  S
O1041     Cr1045   2.009       .  S
O1041      C1042   1.263       .  A
C1042      C1966   1.477       .  S
Cr1043     O1046   1.769       .  S
Cr1044     O1046   1.763       .  S
Cr1045     O1046   1.771       .  S
O1047     Cr1065   1.982       .  S
O1047      C1055   1.269       .  A
O1048     Cr1065   1.988       .  S
O1048      C1049   1.268       .  A
C1049      O1050   1.268       .  A
C1049      C1952   1.488       .  S
O1050     Cr1066   2.004       .  S
O1051     Cr1066   2.016       .  S
O1051      C1052   1.263       .  A
C1052      O1053   1.255       .  A
C1052      C1913   1.478       .  S
O1053     Cr1067   1.973       .  S
O1054     Cr1067   2.021       .  S
O1054      C1055   1.271       .  A
C1055      C1980   1.498       .  S
O1056     Cr1065   1.995       .  S
O1056      C1064   1.257       .  A
O1057     Cr1065   2.027       .  S
O1057      C1058   1.269       .  A
C1058      O1059   1.260       .  A
C1058      C1927   1.481       .  S
O1059     Cr1066   1.979       .  S
O1060     Cr1066   1.975       .  S
O1060      C1061   1.258       .  A
C1061      O1062   1.272       .  A
C1061      C1938   1.477       .  S
O1062     Cr1067   2.028       .  S
O1063     Cr1067   1.975       .  S
O1063      C1064   1.258       .  A
C1064      C1896   1.478       .  S
Cr1065     O1068   1.767       .  S
Cr1066     O1068   1.773       .  S
Cr1067     O1068   1.766       .  S
O1069     Cr1087   1.985       .  S
O1069      C1077   1.284       .  A
O1070     Cr1087   1.978       .  S
O1070      C1071   1.243       .  A
C1071      O1072   1.255       .  A
C1071      C1941   1.489       .  S
O1072     Cr1088   2.010       .  S
O1073     Cr1088   1.986       .  S
O1073      C1074   1.258       .  A
C1074      O1075   1.260       .  A
C1074      C2039   1.479       .  S
O1075     Cr1089   1.987       .  S
O1076     Cr1089   2.042       .  S
O1076      C1077   1.293       .  A
C1077      C1885   1.492       .  S
O1078     Cr1087   1.967       .  S
O1078      C1086   1.240       .  A
O1079     Cr1087   1.991       .  S
O1079      C1080   1.282       .  A
C1080      O1081   1.279       .  A
C1080      C2025   1.479       .  S
O1081     Cr1088   2.005       .  S
O1082     Cr1088   1.992       .  S
O1082      C1083   1.266       .  A
C1083      O1084   1.264       .  A
C1083      C1955   1.479       .  S
O1084     Cr1089   1.994       .  S
O1085     Cr1089   1.996       .  S
O1085      C1086   1.245       .  A
C1086      C1868   1.477       .  S
Cr1087     O1090   1.767       .  S
Cr1088     O1090   1.762       .  S
Cr1089     O1090   1.760       .  S
O1091     Cr1109   2.023       .  S
O1091      C1099   1.272       .  A
O1092     Cr1109   1.953       .  S
O1092      C1093   1.252       .  A
C1093      O1094   1.258       .  A
C1093      C2011   1.463       .  S
O1094     Cr1110   2.004       .  S
O1095     Cr1110   1.977       .  S
O1095      C1096   1.261       .  A
C1096      O1097   1.272       .  A
C1096      C1924   1.469       .  S
O1097     Cr1111   2.016       .  S
O1098     Cr1111   1.977       .  S
O1098      C1099   1.265       .  A
C1099      C1882   1.492       .  S
O1100     Cr1109   1.974       .  S
O1100      C1108   1.257       .  A
O1101     Cr1109   2.031       .  S
O1101      C1102   1.271       .  A
C1102      O1103   1.258       .  A
C1102      C1910   1.469       .  S
O1103     Cr1110   1.962       .  S
O1104     Cr1110   1.983       .  S
O1104      C1105   1.261       .  A
C1105      O1106   1.268       .  A
C1105      C1997   1.485       .  S
O1106     Cr1111   2.024       .  S
O1107     Cr1111   2.022       .  S
O1107      C1108   1.265       .  A
C1108      C1857   1.486       .  S
Cr1109     O1112   1.764       .  S
Cr1110     O1112   1.775       .  S
Cr1111     O1112   1.772       .  S
O1113     Cr1131   1.970       .  S
O1113      C1121   1.264       .  A
O1114     Cr1131   2.020       .  S
O1114      C1115   1.274       .  A
C1115      O1116   1.265   1_554  A
C1115      C1826   1.469   1_554  S
O1116     Cr1132   1.979   1_556  S
O1117     Cr1132   1.987   1_556  S
O1117      C1118   1.251   1_556  A
C1118      O1119   1.252       .  A
C1118      C1801   1.458   1_554  S
O1119     Cr1133   1.971       .  S
O1120     Cr1133   2.029       .  S
O1120      C1121   1.275       .  A
C1121      C1787   1.493       .  S
O1122     Cr1131   2.017       .  S
O1122      C1130   1.263       .  A
O1123     Cr1131   2.032       .  S
O1123      C1124   1.268       .  A
C1124      O1125   1.250       .  A
C1124      C1812   1.482       .  S
O1125     Cr1132   1.962       .  S
O1126     Cr1132   1.956       .  S
O1126      C1127   1.259       .  A
C1127      O1128   1.280       .  A
C1127      C1840   1.493       .  S
O1128     Cr1133   2.042       .  S
O1129     Cr1133   1.987       .  S
O1129      C1130   1.259       .  A
C1130      C1770   1.496       .  S
Cr1131     O1134   1.773       .  S
Cr1132     O1134   1.777       .  S
Cr1133     O1134   1.767       .  S
O1135     Cr1153   1.980       .  S
O1135      C1143   1.266       .  A
O1136     Cr1153   1.989       .  S
O1136      C1137   1.266       .  A
C1137      O1138   1.271   1_554  A
C1137      C1759   1.493   1_554  S
O1138     Cr1154   2.014   1_556  S
O1139     Cr1154   2.032   1_556  S
O1139      C1140   1.265   1_556  A
C1140      O1141   1.254       .  A
C1140      C1731   1.486   1_554  S
O1141     Cr1155   1.964       .  S
O1142     Cr1155   2.031       .  S
O1142      C1143   1.273       .  A
C1143      C1784   1.505       .  S
O1144     Cr1153   2.003       .  S
O1144      C1152   1.262       .  A
O1145     Cr1153   2.015       .  S
O1145      C1146   1.269       .  A
C1146      O1147   1.265       .  A
C1146      C1714   1.484       .  S
O1147     Cr1154   2.001       .  S
O1148     Cr1154   1.975       .  S
O1148      C1149   1.260       .  A
C1149      O1150   1.270       .  A
C1149      C1742   1.478       .  S
O1150     Cr1155   2.010       .  S
O1151     Cr1155   1.977       .  S
O1151      C1152   1.251       .  A
C1152      C1700   1.480       .  S
Cr1153     O1156   1.767       .  S
Cr1154     O1156   1.778       .  S
Cr1155     O1156   1.774       .  S
O1157     Cr1175   2.039       .  S
O1157      C1165   1.278       .  A
O1158     Cr1175   1.966       .  S
O1158      C1159   1.257       .  A
C1159      O1160   1.263   1_556  A
C1159      C1843   1.487   1_556  S
O1160     Cr1176   2.025   1_554  S
O1161     Cr1176   1.998   1_554  S
O1161      C1162   1.263   1_554  A
C1162      O1163   1.268       .  A
C1162      C1717   1.488   1_556  S
O1163     Cr1177   1.994       .  S
O1164     Cr1177   1.981       .  S
O1164      C1165   1.264       .  A
C1165      C1689   1.507       .  S
O1166     Cr1175   1.982       .  S
O1166      C1174   1.257       .  A
O1167     Cr1175   2.037       .  S
O1167      C1168   1.273       .  A
C1168      O1169   1.253       .  A
C1168      C1728   1.470       .  S
O1169     Cr1176   1.949       .  S
O1170     Cr1176   1.998       .  S
O1170      C1171   1.266       .  A
C1171      O1172   1.268       .  A
C1171      C1829   1.477       .  S
O1172     Cr1177   2.004       .  S
O1173     Cr1177   2.017       .  S
O1173      C1174   1.263       .  A
C1174      C1854   1.499       .  S
Cr1175     O1178   1.767       .  S
Cr1176     O1178   1.778       .  S
Cr1177     O1178   1.774       .  S
O1179     Cr1197   1.988       .  S
O1179      C1187   1.271       .  A
O1180     Cr1197   1.985       .  S
O1180      C1181   1.255       .  A
C1181      O1182   1.261   1_556  A
C1181      C1745   1.470   1_556  S
O1182     Cr1198   2.001   1_554  S
O1183     Cr1198   2.011   1_554  S
O1183      C1184   1.263   1_554  A
C1184      O1185   1.260       .  A
C1184      C1815   1.481   1_556  S
O1185     Cr1199   1.973       .  S
O1186     Cr1199   2.030       .  S
O1186      C1187   1.274       .  A
C1187      C1686   1.502       .  S
O1188     Cr1197   1.975       .  S
O1188      C1196   1.256       .  A
O1189     Cr1197   1.998       .  S
O1189      C1190   1.269       .  A
C1190      O1191   1.269       .  A
C1190      C1798   1.473       .  S
O1191     Cr1198   2.004       .  S
O1192     Cr1198   1.975       .  S
O1192      C1193   1.260       .  A
C1193      O1194   1.266       .  A
C1193      C1756   1.479       .  S
O1194     Cr1199   2.015       .  S
O1195     Cr1199   2.007       .  S
O1195      C1196   1.258       .  A
C1196      C1871   1.491       .  S
Cr1197     O1200   1.768       .  S
Cr1198     O1200   1.775       .  S
Cr1199     O1200   1.778       .  S
O1201     Cr1219   1.991       .  S
O1201      C1209   1.267       .  A
O1202     Cr1219   2.004       .  S
O1202      C1203   1.266       .  A
C1203      O1204   1.266       .  A
C1203      C1672   1.479       .  S
O1204     Cr1220   1.990       .  S
O1205     Cr1220   2.014       .  S
O1205      C1206   1.263       .  A
C1206      O1207   1.255       .  A
C1206      C1633   1.492       .  S
O1207     Cr1221   1.973       .  S
O1208     Cr1221   2.017       .  S
O1208      C1209   1.272       .  A
C1209      C1616   1.503       .  S
O1210     Cr1219   2.019       .  S
O1210      C1218   1.263       .  A
O1211     Cr1219   2.030       .  S
O1211      C1212   1.272       .  A
C1212      O1213   1.261       .  A
C1212      C1647   1.491       .  S
O1213     Cr1220   1.964       .  S
O1214     Cr1220   1.966       .  S
O1214      C1215   1.257       .  A
C1215      O1216   1.271       .  A
C1215      C1658   1.476       .  S
O1216     Cr1221   2.028       .  S
O1217     Cr1221   1.975       .  S
O1217      C1218   1.257       .  A
C1218      C1969   1.495       .  S
Cr1219     O1222   1.777       .  S
Cr1220     O1222   1.767       .  S
Cr1221     O1222   1.765       .  S
O1223     Cr1241   2.044       .  S
O1223      C1231   1.280       .  A
O1224     Cr1241   1.968       .  S
O1224      C1225   1.254       .  A
C1225      O1226   1.260       .  A
C1225      C1661   1.472       .  S
O1226     Cr1242   2.015       .  S
O1227     Cr1242   1.957       .  S
O1227      C1228   1.259       .  A
C1228      O1229   1.276       .  A
C1228      C1588   1.466       .  S
O1229     Cr1243   2.031       .  S
O1230     Cr1243   1.969       .  S
O1230      C1231   1.261       .  A
C1231      C1574   1.496       .  S
O1232     Cr1241   1.979       .  S
O1232      C1240   1.255       .  A
O1233     Cr1241   2.056       .  S
O1233      C1234   1.278       .  A
C1234      O1235   1.248       .  A
C1234      C1602   1.476       .  S
O1235     Cr1242   1.923       .  S
O1236     Cr1242   1.988       .  S
O1236      C1237   1.261       .  A
C1237      O1238   1.259       .  A
C1237      C1675   1.466       .  S
O1238     Cr1243   2.002       .  S
O1239     Cr1243   2.007       .  S
O1239      C1240   1.266       .  A
C1240      C1560   1.492       .  S
Cr1241     O1244   1.761       .  S
Cr1242     O1244   1.767       .  S
Cr1243     O1244   1.767       .  S
O1245     Cr1263   2.017       .  S
O1245      C1253   1.273       .  A
O1246     Cr1263   1.998       .  S
O1246      C1247   1.268       .  A
C1247      O1248   1.271       .  A
C1247      C1546   1.480       .  S
O1248     Cr1264   2.007       .  S
O1249     Cr1264   2.010       .  S
O1249      C1250   1.257       .  A
C1250      O1251   1.252       .  A
C1250      C1644   1.472       .  S
O1251     Cr1265   1.958       .  S
O1252     Cr1265   2.011       .  S
O1252      C1253   1.269       .  A
C1253      C1577   1.508       .  S
O1254     Cr1263   1.997       .  S
O1254      C1262   1.262       .  A
O1255     Cr1263   2.039       .  S
O1255      C1256   1.270       .  A
C1256      O1257   1.255       .  A
C1256      C1630   1.487       .  S
O1257     Cr1264   1.977       .  S
O1258     Cr1264   1.986       .  S
O1258      C1259   1.262       .  A
C1259      O1260   1.270       .  A
C1259      C1535   1.476       .  S
O1260     Cr1265   2.017       .  S
O1261     Cr1265   1.977       .  S
O1261      C1262   1.255       .  A
C1262      C1518   1.474       .  S
Cr1263     O1266   1.771       .  S
Cr1264     O1266   1.781       .  S
Cr1265     O1266   1.775       .  S
O1267     Cr1285   1.995       .  S
O1267      C1275   1.269       .  A
O1268     Cr1285   1.993       .  S
O1268      C1269   1.263       .  A
C1269      O1270   1.270       .  A
C1269      C1532   1.481       .  S
O1270     Cr1286   2.002       .  S
O1271     Cr1286   2.028       .  S
O1271      C1272   1.263       .  A
C1272      O1273   1.255       .  A
C1272      C1605   1.490       .  S
O1273     Cr1287   1.952       .  S
O1274     Cr1287   2.006       .  S
O1274      C1275   1.269       .  A
C1275      C1619   1.484       .  S
O1276     Cr1285   1.995       .  S
O1276      C1284   1.258       .  A
O1277     Cr1285   2.015       .  S
O1277      C1278   1.269       .  A
C1278      O1279   1.263       .  A
C1278      C1591   1.474       .  S
O1279     Cr1286   1.977       .  S
O1280     Cr1286   1.970       .  S
O1280      C1281   1.259       .  A
C1281      O1282   1.267       .  A
C1281      C1549   1.477       .  S
O1282     Cr1287   2.022       .  S
O1283     Cr1287   1.980       .  S
O1283      C1284   1.259       .  A
C1284      C1899   1.482       .  S
Cr1285     O1288   1.775       .  S
Cr1286     O1288   1.773       .  S
Cr1287     O1288   1.759       .  S
O1289     Cr1307   2.028       .  S
O1289      C1297   1.273       .  A
O1290     Cr1307   1.959       .  S
O1290      C1291   1.254       .  A
C1291      O1292   1.265       .  A
C1291      C1493   1.483       .  S
O1292     Cr1308   2.030       .  S
O1293     Cr1308   1.987       .  S
O1293      C1294   1.266       .  A
C1294      O1295   1.271       .  A
C1294      C1462   1.472       .  S
O1295     Cr1309   2.014       .  S
O1296     Cr1309   1.983       .  S
O1296      C1297   1.265       .  A
C1297      C1448   1.502       .  S
O1298     Cr1307   1.961       .  S
O1298      C1306   1.250       .  A
O1299     Cr1307   2.010       .  S
O1299      C1300   1.270       .  A
C1300      O1301   1.258       .  A
C1300      C1476   1.473       .  S
O1301     Cr1308   1.967       .  S
O1302     Cr1308   2.001       .  S
O1302      C1303   1.264       .  A
C1303      O1304   1.266       .  A
C1303      C1507   1.488       .  S
O1304     Cr1309   2.014       .  S
O1305     Cr1309   2.022       .  S
O1305      C1306   1.266       .  A
C1306      C1563   1.484       .  S
Cr1307     O1310   1.768       .  S
Cr1308     O1310   1.775       .  S
Cr1309     O1310   1.769       .  S
O1311     Cr1329   2.039       .  S
O1311      C1319   1.279       .  A
O1312     Cr1329   1.973       .  S
O1312      C1313   1.255       .  A
C1313      O1314   1.258       .  A
C1313      C1420   1.492       .  S
O1314     Cr1330   2.005       .  S
O1315     Cr1330   1.991       .  S
O1315      C1316   1.263       .  A
C1316      O1317   1.261       .  A
C1316      C1479   1.467       .  S
O1317     Cr1331   1.994       .  S
O1318     Cr1331   1.993       .  S
O1318      C1319   1.273       .  A
C1319      C1406   1.513       .  S
O1320     Cr1329   1.979       .  S
O1320      C1328   1.252       .  A
O1321     Cr1329   2.037       .  S
O1321      C1322   1.274       .  A
C1322      O1323   1.257       .  A
C1322      C1465   1.490       .  S
O1323     Cr1330   1.936       .  S
O1324     Cr1330   1.982       .  S
O1324      C1325   1.265       .  A
C1325      O1326   1.270       .  A
C1325      C1434   1.493       .  S
O1326     Cr1331   2.022       .  S
O1327     Cr1331   1.989       .  S
O1327      C1328   1.253       .  A
C1328      C1703   1.476       .  S
Cr1329     O1332   1.783       .  S
Cr1330     O1332   1.779       .  S
Cr1331     O1332   1.782       .  S
O1333     Cr1351   2.033       .  S
O1333      C1341   1.275       .  A
O1334     Cr1351   1.957       .  S
O1334      C1335   1.252       .  A
C1335      O1336   1.258       .  A
C1335      C1437   1.470       .  S
O1336     Cr1352   2.004       .  S
O1337     Cr1352   1.984       .  S
O1337      C1338   1.263       .  A
C1338      O1339   1.270       .  A
C1338      C1381   1.468       .  S
O1339     Cr1353   2.015       .  S
O1340     Cr1353   1.992       .  S
O1340      C1341   1.269       .  A
C1341      C1451   1.506       .  S
O1342     Cr1351   1.968       .  S
O1342      C1350   1.254       .  A
O1343     Cr1351   2.031       .  S
O1343      C1344   1.275       .  A
C1344      O1345   1.259       .  A
C1344      C1392   1.492       .  S
O1345     Cr1352   1.968       .  S
O1346     Cr1352   1.979       .  S
O1346      C1347   1.261       .  A
C1347      O1348   1.271       .  A
C1347      C1423   1.498       .  S
O1348     Cr1353   2.039       .  S
O1349     Cr1353   2.014       .  S
O1349      C1350   1.262       .  A
C1350      C1521   1.486       .  S
Cr1351     O1354   1.763       .  S
Cr1352     O1354   1.773       .  S
Cr1353     O1354   1.773       .  S
O1355     Cr1373   1.980       .  S
O1355      C1363   1.268       .  A
O1356     Cr1373   1.987       .  S
O1356      C1357   1.262       .  A
C1357      O1358   1.262       .  A
C1357      C1504   1.498       .  S
O1358     Cr1374   2.011       .  S
O1359     Cr1374   2.012       .  S
O1359      C1360   1.262       .  A
C1360      O1361   1.257       .  A
C1360      C1395   1.481       .  S
O1361     Cr1375   1.973       .  S
O1362     Cr1375   2.052       .  S
O1362      C1363   1.284       .  A
C1363      C1409   1.511       .  S
O1364     Cr1373   2.008       .  S
O1364      C1372   1.257       .  A
O1365     Cr1373   2.000       .  S
O1365      C1366   1.270       .  A
C1366      O1367   1.270       .  A
C1366      C1378   1.475       .  S
O1367     Cr1374   2.002       .  S
O1368     Cr1374   1.954       .  S
O1368      C1369   1.256       .  A
C1369      O1370   1.274       .  A
C1369      C1490   1.482       .  S
O1370     Cr1375   2.040       .  S
O1371     Cr1375   1.996       .  S
O1371      C1372   1.257       .  A
C1372      C1773   1.505       .  S
Cr1373     O1376   1.778       .  S
Cr1374     O1376   1.785       .  S
Cr1375     O1376   1.773       .  S
C1377      C1378   1.404       .  A
C1377      C1382   1.398       .  A
C1377      H1384   1.085       .  S
C1378      C1379   1.408       .  A
C1379      C3428   1.404       .  A
C1379      N1386   1.428       .  S
C1380      C3427   1.400   1_455  A
C1380      C1381   1.403       .  A
C1380      H1385   1.085       .  S
C1381      C3430   1.406   1_455  A
C1382      C3429   1.406       .  A
C1382      N1383   1.427       .  S
N1383      O1387   1.261       .  A
N1383      O3436   1.262       .  A
N1386      O3438   1.262       .  A
N1386      O1389   1.262       .  A
O1388      N3431   1.262       .  A
O1390      N3434   1.262       .  A
C1391      C1392   1.404       .  A
C1391      C1396   1.404       .  A
C1391      H1398   1.084       .  S
C1392      C1393   1.420       .  A
C1393      C1394   1.401       .  A
C1393      N1400   1.429       .  S
C1394      C1395   1.399       .  A
C1394      H1399   1.084       .  S
C1395      C1396   1.412       .  A
C1396      N1397   1.426       .  S
N1397      O1401   1.262       .  A
N1397      O1402   1.262       .  A
N1400      O1404   1.262       .  A
N1400      O1403   1.261       .  A
C1405      C1406   1.408       .  A
C1405      C1410   1.407       .  A
C1405      H1412   1.084       .  S
C1406      C1407   1.420       .  A
C1407      C1408   1.412       .  A
C1407      N1414   1.426       .  S
C1408      C1409   1.408       .  A
C1408      H1413   1.084       .  S
C1409      C1410   1.421       .  A
C1410      N1411   1.429       .  S
N1411      O1415   1.262       .  A
N1411      O1416   1.262       .  A
N1414      O1418   1.261       .  A
N1414      O1417   1.262       .  A
C1419      C1420   1.411       .  A
C1419      C1424   1.417       .  A
C1419      H1426   1.084       .  S
C1420      C1421   1.411       .  A
C1421      C1422   1.391       .  A
C1421      N1428   1.430       .  S
C1422      C1423   1.407       .  A
C1422      H1427   1.085       .  S
C1423      C1424   1.416       .  A
C1424      N1425   1.428       .  S
N1425      O1429   1.262       .  A
N1425      O1430   1.262       .  A
N1428      O1432   1.261       .  A
N1428      O1431   1.261       .  A
C1433      C1434   1.404       .  A
C1433      H1440   1.082       .  S
C1434      C1435   1.414       .  A
C1435      C1436   1.410   1_565  A
C1435      N1442   1.421       .  S
C1436      H1441   1.086       .  S
C1437      C1438   1.405       .  A
C1438      N1439   1.430       .  S
N1439      O1443   1.262       .  A
N1439      O1444   1.262       .  A
N1442      O1446   1.262       .  A
N1442      O1445   1.262       .  A
C1447      C3496   1.407   1_455  A
C1447      C1452   1.409       .  A
C1447      H1454   1.084       .  S
C1448      C3495   1.408       .  A
C1449      C1450   1.406       .  A
C1449      N1456   1.424       .  S
C1450      C3499   1.405       .  A
C1450      H1455   1.083       .  S
C1451      C3498   1.404       .  A
C1452      N1453   1.425       .  S
N1453      O1457   1.262       .  A
N1453      O1458   1.261       .  A
N1456      O1460   1.261       .  A
N1456      O1459   1.262       .  A
C1461      C3510   1.403       .  A
C1461      C1466   1.406       .  A
C1461      H1468   1.085   1_455  S
C1462      C3509   1.403       .  A
C1462      C1463   1.402       .  A
C1463      C3512   1.394       .  A
C1463      N1470   1.427       .  S
C1464      C3511   1.393       .  A
C1464      C1465   1.411       .  A
C1464      H1469   1.086       .  S
C1465      C1466   1.411       .  A
C1466      N1467   1.427       .  S
N1467      O1471   1.262       .  A
N1467      O1472   1.261       .  A
N1470      O1474   1.262       .  A
N1470      O1473   1.260       .  A
C1475      C1476   1.394       .  A
C1475      C1480   1.391       .  A
C1475      H1482   1.085       .  S
C1476      C1477   1.415       .  A
C1477      C1478   1.401       .  A
C1477      N1484   1.425       .  S
C1478      C1479   1.396       .  A
C1478      H1483   1.085       .  S
C1479      C1480   1.415       .  A
C1480      N1481   1.426       .  S
N1481      O1485   1.262       .  A
N1481      O1486   1.262       .  A
N1484      O1488   1.261       .  A
N1484      O1487   1.262       .  A
C1489      C1490   1.399       .  A
C1489      C1494   1.395       .  A
C1489      H1496   1.084       .  S
C1490      C1491   1.412       .  A
C1491      C1492   1.413       .  A
C1491      N1498   1.427       .  S
N1495      O1500   1.262   1_545  A
N1498      O1502   1.262       .  A
N1498      O1501   1.262       .  A
C1503      C1504   1.404       .  A
C1503      C1508   1.388       .  A
C1503      H1510   1.084       .  S
C1504      C1505   1.417       .  A
C1505      C1506   1.417       .  A
C1505      N1512   1.427       .  S
C1506      C1507   1.408       .  A
C1506      H1511   1.084       .  S
C1507      C1508   1.408       .  A
C1508      N1509   1.427       .  S
N1509      O1513   1.262       .  A
N1509      O1514   1.262       .  A
N1512      O1516   1.262       .  A
N1512      O1515   1.262       .  A
C1517      C1518   1.400       .  A
C1517      C1522   1.401       .  A
C1517      H1524   1.085       .  S
C1518      C1519   1.409       .  A
C1519      C1520   1.401       .  A
C1519      N1526   1.429       .  S
C1520      C1521   1.407       .  A
C1520      H1525   1.085       .  S
C1521      C1522   1.415       .  A
C1522      N1523   1.428       .  S
N1523      O1527   1.262       .  A
N1523      O1528   1.262       .  A
N1526      O1530   1.262       .  A
N1526      O1529   1.262       .  A
C1531      C1532   1.400       .  A
C1531      C1536   1.405       .  A
C1531      H1538   1.084       .  S
C1532      C1533   1.419       .  A
C1533      C1534   1.396       .  A
C1533      N1540   1.431       .  S
C1534      C1535   1.396       .  A
C1534      H1539   1.085       .  S
C1535      C1536   1.414       .  A
C1536      N1537   1.428       .  S
N1537      O1541   1.260       .  A
N1537      O1542   1.262       .  A
N1540      O1544   1.262       .  A
N1540      O1543   1.262       .  A
C1545      C1550   1.399       .  A
C1547      C1548   1.403       .  A
C1548      C1549   1.407       .  A
C1548      H1553   1.085       .  S
C1549      C1550   1.409       .  A
C1550      N1551   1.429       .  S
N1551      O1555   1.262       .  A
N1551      O1556   1.261       .  A
N1554      O1557   1.262       .  A
C1559      C1560   1.404       .  A
C1559      C1564   1.398       .  A
C1559      H1566   1.085       .  S
C1560      C1561   1.419       .  A
C1561      C1562   1.404       .  A
C1561      N1568   1.429       .  S
C1562      C1563   1.402       .  A
C1562      H1567   1.085       .  S
C1563      C1564   1.414       .  A
C1564      N1565   1.430       .  S
N1565      O1569   1.262       .  A
N1565      O1570   1.262       .  A
N1568      O1572   1.262       .  A
N1568      O1571   1.262       .  A
C1573      C1578   1.406       .  A
C1573      H1580   1.085       .  S
C1574      C1575   1.418       .  A
C1575      C1576   1.406       .  A
C1575      N1582   1.429       .  S
C1576      H1581   1.085       .  S
C1577      C1578   1.419       .  A
C1578      N1579   1.426       .  S
N1579      O1583   1.262       .  A
N1579      O1584   1.261       .  A
N1582      O1586   1.260       .  A
N1582      O1585   1.262       .  A
C1587      C1588   1.408       .  A
C1587      C1592   1.408       .  A
C1587      H1594   1.084       .  S
C1588      C1589   1.399       .  A
C1589      C1590   1.385       .  A
C1589      N1596   1.424       .  S
C1590      C1591   1.404       .  A
C1590      H1595   1.084       .  S
C1591      C1592   1.409       .  A
C1592      N1593   1.427       .  S
N1593      O1597   1.262       .  A
N1593      O1598   1.262       .  A
N1596      O1600   1.262       .  A
N1596      O1599   1.261       .  A
C1601      C1602   1.402       .  A
C1601      C3654   1.410       .  A
C1601      H1608   1.084       .  S
C1602      C1603   1.417       .  A
C1603      C3652   1.385       .  A
C1603      N1610   1.433       .  S
C1604      C3651   1.382       .  A
C1604      C1605   1.402   1_655  A
C1604      H1609   1.083       .  S
C1605      C1606   1.420   1_455  A
C1606      C3649   1.413       .  A
C1606      N1607   1.429   1_655  S
N1607      O1611   1.262       .  A
N1607      O1612   1.261       .  A
N1610      O1614   1.262       .  A
N1610      O1613   1.262       .  A
C1615      C3664   1.415   1_455  A
C1615      C1620   1.411       .  A
C1615      H1622   1.083       .  S
C1616      C3663   1.414       .  A
C1616      C1617   1.419       .  A
C1617      C3666   1.402       .  A
C1617      N1624   1.429       .  S
C1618      C3665   1.399       .  A
C1618      C1619   1.400   1_655  A
C1618      H3671   1.084       .  S
C1619      C1620   1.406       .  A
C1620      N1621   1.429       .  S
N1621      O1625   1.262       .  A
N1621      O1626   1.261       .  A
H1623      C3666   1.084       .  S
N1624      O1628   1.262       .  A
N1624      O1627   1.262       .  A
C1629      C1630   1.406       .  A
C1629      C1634   1.393       .  A
C1629      H1636   1.084       .  S
C1630      C1631   1.409       .  A
C1631      C3680   1.412   1_455  A
C1631      N1638   1.427       .  S
C1632      C3679   1.412       .  A
C1632      C1633   1.413       .  A
C1632      H1637   1.085       .  S
C1633      C3682   1.412       .  A
C1634      C3681   1.410   1_455  A
C1634      N1635   1.431       .  S
N1635      O1639   1.262       .  A
N1635      O1640   1.262       .  A
N1638      O1642   1.262       .  A
N1638      O1641   1.262       .  A
C1643      C1644   1.408       .  A
C1643      C1648   1.415       .  A
C1643      H1650   1.084       .  S
C1644      C1645   1.404       .  A
C1645      C1646   1.380       .  A
C1645      N1652   1.432       .  S
C1646      C1647   1.408       .  A
C1646      H1651   1.084       .  S
C1647      C1648   1.414       .  A
C1648      N1649   1.426       .  S
N1649      O1653   1.262       .  A
N1649      O1654   1.261       .  A
N1652      O1656   1.261       .  A
N1652      O1655   1.262       .  A
C1657      C1658   1.401       .  A
C1657      H1664   1.084       .  S
C1658      C1659   1.415       .  A
C1659      C1660   1.401       .  A
C1659      N1666   1.427       .  S
C1660      H1665   1.084       .  S
C1661      C1662   1.410       .  A
C1662      N1663   1.428       .  S
N1663      O1667   1.262       .  A
N1663      O1668   1.261       .  A
N1666      O1670   1.261       .  A
N1666      O1669   1.262       .  A
C1671      C1672   1.403       .  A
C1671      C1676   1.407       .  A
C1671      H1678   1.084       .  S
C1672      C1673   1.418       .  A
C1673      C1674   1.390       .  A
C1673      N1680   1.429       .  S
C1674      C1675   1.392       .  A
C1674      H1679   1.086       .  S
C1675      C1676   1.414       .  A
C1676      N1677   1.428       .  S
N1677      O1681   1.261       .  A
N1677      O1682   1.262       .  A
N1680      O1684   1.261       .  A
N1680      O1683   1.262       .  A
C1685      C1686   1.404       .  A
C1685      C1690   1.402       .  A
C1685      H1692   1.084       .  S
C1686      C3735   1.420       .  A
C1687      C3734   1.420       .  A
C1687      C1688   1.409       .  A
C1687      N1694   1.429       .  S
C1688      C1689   1.407       .  A
C1688      H1693   1.084       .  S
C1689      C3738   1.420       .  A
C1690      C3737   1.419   1_455  A
C1690      N1691   1.429       .  S
N1691      O1695   1.262       .  A
N1691      O1696   1.262       .  A
N1694      O1698   1.262       .  A
N1694      O1697   1.262       .  A
C1699      C1700   1.400       .  A
C1699      C1704   1.397       .  A
C1699      H1706   1.085       .  S
C1700      C1701   1.414       .  A
C1701      C1702   1.403       .  A
C1701      N1708   1.428       .  S
C1702      C1703   1.402       .  A
C1702      H1707   1.085       .  S
C1703      C1704   1.408       .  A
C1704      N1705   1.424       .  S
N1705      O1709   1.262       .  A
N1705      O1710   1.260       .  A
N1708      O1712   1.262       .  A
N1708      O1711   1.262       .  A
C1713      C1714   1.406       .  A
C1713      C1718   1.416       .  A
C1713      H1720   1.082       .  S
C1714      C1715   1.408       .  A
C1715      C3764   1.389       .  A
C1715      N1722   1.427       .  S
C1716      C3763   1.388       .  A
C1716      C1717   1.402       .  A
C1716      H1721   1.085   1_554  S
C1717      C3766   1.415       .  A
C1718      C3765   1.415   1_455  A
C1718      N1719   1.428   1_455  S
N1719      O1723   1.262   1_655  A
N1719      O1724   1.262       .  A
N1722      O1726   1.262       .  A
N1722      O1725   1.262   1_554  A
C1727      C1728   1.394       .  A
C1727      C1732   1.392   1_556  A
C1727      H1734   1.081   1_556  S
C1728      C1729   1.409       .  A
C1729      C1730   1.414       .  A
C1729      N1736   1.428       .  S
C1730      C1731   1.410       .  A
C1730      H1735   1.083       .  S
C1731      C1732   1.414   1_556  A
C1732      N1733   1.430       .  S
N1733      O1737   1.261       .  A
N1733      O1738   1.262       .  A
N1736      O1740   1.262       .  A
N1736      O1739   1.262       .  A
C1741      C1742   1.396       .  A
C1741      C1746   1.394       .  A
C1741      H1748   1.086       .  S
C1742      C1743   1.415       .  A
C1743      C1744   1.402       .  A
C1743      N1750   1.425       .  S
C1744      C1745   1.397       .  A
C1744      H1749   1.086       .  S
C1745      C1746   1.414       .  A
C1746      N1747   1.427       .  S
N1747      O1751   1.261   1_554  A
N1747      O1752   1.262       .  A
N1750      O1754   1.262       .  A
N1750      O1753   1.262       .  A
C1755      C1756   1.405       .  A
C1755      H1762   1.079       .  S
C1756      C1757   1.395       .  A
C1757      C1758   1.391   1_556  A
C1757      N1764   1.426       .  S
C1758      H1763   1.080       .  S
C1759      C1760   1.412   1_565  A
C1760      N1761   1.428   1_545  S
N1761      O1765   1.261       .  A
N1761      O1766   1.262   1_565  A
N1764      O1768   1.261   1_556  A
N1764      O1767   1.261       .  A
C1769      C1770   1.403       .  A
C1769      C1774   1.407       .  A
C1769      H1776   1.085       .  S
C1770      C1771   1.415       .  A
C1771      C1772   1.408       .  A
C1771      N1778   1.429       .  S
C1772      C1773   1.408       .  A
C1772      H1777   1.084       .  S
C1773      C1774   1.420       .  A
C1774      N1775   1.428       .  S
N1775      O1779   1.262       .  A
N1775      O1780   1.262       .  A
N1778      O1782   1.262       .  A
N1778      O1781   1.262       .  A
C1783      C1788   1.404       .  A
C1783      H1790   1.085       .  S
C1784      C1785   1.418       .  A
C1785      C1786   1.410       .  A
C1785      N1792   1.427       .  S
C1786      H1791   1.084       .  S
C1787      C1788   1.412       .  A
C1788      N1789   1.428       .  S
N1789      O1793   1.261       .  A
N1789      O1794   1.262       .  A
N1792      O1796   1.262       .  A
N1792      O1795   1.262       .  A
C1797      C1798   1.404       .  A
C1797      C1802   1.405       .  A
C1797      H1804   1.082       .  S
C1798      C1799   1.409       .  A
C1799      C1800   1.390       .  A
C1799      N1806   1.419       .  S
C1800      C1801   1.388       .  A
C1800      H1805   1.085       .  S
C1801      C1802   1.407       .  A
C1802      N1803   1.429       .  S
N1803      O1807   1.262       .  A
N1803      O1808   1.262   1_556  A
N1806      O1810   1.262       .  A
N1806      O1809   1.261       .  A
C1811      C1812   1.405       .  A
C1811      C3864   1.413       .  A
C1811      H1818   1.084       .  S
C1812      C1813   1.417       .  A
C1813      C1814   1.384   1_554  A
C1813      N1820   1.430   1_554  S
C1814      C3863   1.393   1_556  A
C1814      H3867   1.086       .  S
C1815      C3862   1.394   1_454  A
C1815      C1816   1.416       .  A
C1816      C3859   1.416   1_455  A
C1816      N1817   1.427       .  S
N1817      O1821   1.262       .  A
N1817      O1822   1.261       .  A
H1819      C3862   1.086   1_455  S
N1820      O1824   1.262       .  A
N1820      O1823   1.262       .  A
C1825      C1826   1.403       .  A
C1825      H1832   1.082       .  S
C1827      C1828   1.401       .  A
C1827      N1834   1.429   1_556  S
C1828      C1829   1.409       .  A
C1828      H1833   1.083       .  S
C1829      C1830   1.409       .  A
C1830      N1831   1.428       .  S
N1831      O1836   1.262       .  A
N1834      O1838   1.261       .  A
C1839      C1840   1.404       .  A
C1839      C1844   1.405       .  A
C1839      H1846   1.085       .  S
C1840      C1841   1.421       .  A
C1841      C1842   1.396       .  A
C1841      N1848   1.428   1_554  S
C1842      C1843   1.399       .  A
C1842      H1847   1.086   1_554  S
C1843      C1844   1.415       .  A
C1844      N1845   1.425       .  S
N1845      O1849   1.262       .  A
N1845      O1850   1.262       .  A
N1848      O1852   1.260   1_556  A
N1848      O1851   1.262       .  A
C1853      C1854   1.409       .  A
C1853      C1858   1.404       .  A
C1853      H1860   1.084       .  S
C1854      C1855   1.418       .  A
C1855      C1856   1.404       .  A
C1855      N1862   1.428       .  S
C1856      C1857   1.402       .  A
C1856      H1861   1.085       .  S
C1857      C1858   1.412       .  A
C1858      N1859   1.430       .  S
N1859      O1863   1.262       .  A
N1859      O1864   1.262       .  A
N1862      O1866   1.262       .  A
N1862      O1865   1.262       .  A
C1867      C1868   1.405       .  A
C1867      C1872   1.410       .  A
C1867      H1874   1.084       .  S
C1868      C1869   1.409       .  A
C1869      C1870   1.388       .  A
C1869      N1876   1.430       .  S
C1870      C1871   1.406       .  A
C1870      H1875   1.084       .  S
C1871      C1872   1.416       .  A
C1872      N1873   1.427       .  S
N1873      O1877   1.262       .  A
N1873      O1878   1.262       .  A
N1876      O1880   1.262       .  A
N1876      O1879   1.262       .  A
C1881      C1882   1.405       .  A
C1881      C1886   1.403       .  A
C1881      H1888   1.084       .  S
C1882      C1883   1.415       .  A
C1883      C1884   1.404       .  A
C1883      N1890   1.427       .  S
C1884      C1885   1.405       .  A
C1884      H1889   1.085       .  S
C1885      C1886   1.414       .  A
C1886      N1887   1.428       .  S
N1887      O1891   1.262       .  A
N1887      O1892   1.262       .  A
N1890      O1894   1.262       .  A
N1890      O1893   1.262       .  A
C1895      C1896   1.399       .  A
C1895      C1900   1.396       .  A
C1895      H1902   1.085       .  S
C1896      C1897   1.415       .  A
C1897      C1898   1.399       .  A
C1897      N1904   1.429       .  S
C1898      C1899   1.402       .  A
C1898      H1903   1.085       .  S
C1899      C1900   1.417       .  A
C1900      N1901   1.428       .  S
N1901      O1905   1.262       .  A
N1901      O1906   1.262       .  A
N1904      O1908   1.262       .  A
N1904      O1907   1.262       .  A
C1909      C1910   1.404       .  A
C1909      C1914   1.405       .  A
C1909      H1916   1.085       .  S
C1910      C1911   1.409       .  A
C1911      C3960   1.396       .  A
C1911      N1918   1.429       .  S
C1912      C3959   1.406   1_455  A
C1912      C1913   1.404       .  A
C1912      H1917   1.085       .  S
C1913      C3962   1.408   1_455  A
C1914      C3961   1.409       .  A
C1914      N1915   1.427       .  S
N1915      O1919   1.262       .  A
N1915      O3968   1.262       .  A
N1918      O1922   1.261       .  A
N1918      O1921   1.262       .  A
O1920      N3963   1.262       .  A
C1923      C1924   1.408       .  A
C1923      C1928   1.412       .  A
C1923      H1930   1.085       .  S
C1924      C1925   1.400       .  A
C1925      C1926   1.386       .  A
C1925      N1932   1.428       .  S
C1926      C1927   1.405       .  A
C1926      H1931   1.084       .  S
C1927      C1928   1.412       .  A
C1928      N1929   1.427       .  S
N1929      O1933   1.262       .  A
N1929      O1934   1.262       .  A
N1932      O1936   1.262       .  A
N1932      O1935   1.262       .  A
C1937      C1938   1.396       .  A
C1937      C1942   1.398       .  A
C1937      H1944   1.086       .  S
C1938      C1939   1.415       .  A
C1939      C1940   1.404       .  A
C1939      N1946   1.429       .  S
C1940      C1941   1.402       .  A
C1940      H1945   1.085       .  S
C1941      C1942   1.422       .  A
C1942      N1943   1.429       .  S
N1943      O1947   1.262       .  A
N1943      O1948   1.262       .  A
N1946      O1950   1.262       .  A
N1946      O1949   1.262       .  A
C1951      C1956   1.385       .  A
C1951      H1958   1.084       .  S
C1952      C1953   1.416   1_565  A
C1953      N1960   1.427   1_545  S
C1954      C1955   1.410       .  A
C1954      H1959   1.084       .  S
C1955      C1956   1.405       .  A
C1956      N1957   1.429       .  S
N1957      O1961   1.261       .  A
N1957      O1962   1.262       .  A
N1960      O1964   1.262       .  A
N1960      O1963   1.262       .  A
C1965      C1966   1.401       .  A
C1965      C1970   1.408       .  A
C1965      H1972   1.084       .  S
C1966      C1967   1.408       .  A
C1967      C1968   1.399       .  A
C1967      N1974   1.429       .  S
C1968      C1969   1.408       .  A
C1968      H1973   1.084       .  S
C1969      C1970   1.419       .  A
C1970      N1971   1.428       .  S
N1971      O1975   1.262       .  A
N1971      O1976   1.262       .  A
N1974      O1978   1.262       .  A
N1974      O1977   1.262       .  A
C1979      C1984   1.397       .  A
C1979      H1986   1.084       .  S
C1980      C4029   1.420       .  A
C1981      C4028   1.420       .  A
C1981      C1982   1.409   1_565  A
C1981      N1988   1.429       .  S
C1982      H1987   1.084   1_545  S
C1983      C4032   1.412       .  A
C1984      C4031   1.413   1_455  A
C1984      N1985   1.429       .  S
N1985      O1989   1.261       .  A
N1985      O1990   1.262       .  A
N1988      O1992   1.262       .  A
N1988      O1991   1.262       .  A
C1993      C1998   1.410   1_545  A
C1995      C1996   1.392       .  A
C1996      C1997   1.404       .  A
C1996      H2001   1.085       .  S
C1997      C1998   1.409       .  A
C1998      N1999   1.427       .  S
N1999      O2003   1.262       .  A
N1999      O2004   1.262       .  A
N2002      O2006   1.262       .  A
N2002      O2005   1.262       .  A
C2007      C2008   1.405       .  A
C2007      C2012   1.377       .  A
C2007      H2014   1.074       .  S
C2008      C2009   1.412       .  A
C2009      C2010   1.411       .  A
C2009      N2016   1.427       .  S
C2010      C2011   1.406       .  A
C2010      H2015   1.082       .  S
C2011      C2012   1.403       .  A
C2012      N2013   1.433       .  S
N2013      O2017   1.261       .  A
N2013      O2018   1.262       .  A
N2016      O2020   1.262       .  A
N2016      O2019   1.262       .  A
C2021      C4070   1.390       .  A
C2021      C2026   1.390       .  A
C2021      H2028   1.085       .  S
C2022      C4069   1.393       .  A
C2022      C4071   1.412       .  A
C2023      C4070   1.411       .  A
C2023      C2024   1.404       .  A
C2023      N4078   1.427   1_455  S
C2024      C2025   1.404       .  A
C2024      H2029   1.085       .  S
C2025      C2026   1.420       .  A
C2026      N2027   1.430       .  S
N2027      O2031   1.261       .  A
N2027      O2032   1.262       .  A
N2030      C4071   1.425       .  S
N2030      O2034   1.261       .  A
N2030      O2033   1.262       .  A
C2035      C2036   1.406       .  A
C2035      C2040   1.403       .  A
C2035      H2042   1.084       .  S
C2036      C2037   1.402       .  A
C2037      C2038   1.399       .  A
C2037      N2044   1.429       .  S
C2038      C2039   1.407       .  A
C2038      H2043   1.083       .  S
C2039      C2040   1.408       .  A
C2040      N2041   1.428       .  S
N2041      O2045   1.262       .  A
N2041      O2046   1.262       .  A
N2044      O2048   1.262       .  A
N2044      O2047   1.260       .  A
O2049     Cr2067   2.044       .  S
O2049      C2057   1.281       .  A
O2050     Cr2067   1.963       .  S
O2050      C2051   1.253       .  A
C2051      O2052   1.260       .  A
C2051      C3018   1.481       .  S
O2052     Cr2068   2.008       .  S
O2053     Cr2068   1.986       .  S
O2053      C2054   1.263       .  A
C2054      O2055   1.267       .  A
C2054      C3046   1.471       .  S
O2055     Cr2069   2.018       .  S
O2056     Cr2069   1.961       .  S
O2056      C2057   1.263       .  A
C2057      C3007   1.498       .  S
O2058     Cr2067   1.981       .  S
O2058      C2066   1.253       .  A
O2059     Cr2067   2.046       .  S
O2059      C2060   1.277       .  A
C2060      O2061   1.253       .  A
C2060      C3060   1.485       .  S
O2061     Cr2068   1.937       .  S
O2062     Cr2068   1.974       .  S
O2062      C2063   1.265       .  A
C2063      O2064   1.264       .  A
C2063      C3032   1.476       .  S
O2064     Cr2069   1.998       .  S
O2065     Cr2069   2.002       .  S
O2065      C2066   1.261       .  A
C2066      C2990   1.491       .  S
Cr2067     O2070   1.771       .  S
Cr2068     O2070   1.768       .  S
Cr2069     O2070   1.773       .  S
O2071     Cr2089   1.963       .  S
O2071      C2079   1.263       .  A
O2072     Cr2089   1.970       .  S
O2072      C2073   1.264       .  A
C2073      O2074   1.268       .  A
C2073      C2976   1.493       .  S
O2074     Cr2090   2.012       .  S
O2075     Cr2090   2.016       .  S
O2075      C2076   1.262       .  A
C2076      O2077   1.255       .  A
C2076      C2937   1.472       .  S
O2077     Cr2091   1.973       .  S
O2078     Cr2091   2.027       .  S
O2078      C2079   1.271       .  A
C2079      C3004   1.493       .  S
O2080     Cr2089   1.995       .  S
O2080      C2088   1.257       .  A
O2081     Cr2089   2.008       .  S
O2081      C2082   1.267       .  A
C2082      O2083   1.264       .  A
C2082      C2951   1.476       .  S
O2083     Cr2090   1.993       .  S
O2084     Cr2090   1.968       .  S
O2084      C2085   1.259       .  A
C2085      O2086   1.271       .  A
C2085      C2962   1.480       .  S
O2086     Cr2091   2.017       .  S
O2087     Cr2091   1.974       .  S
O2087      C2088   1.255       .  A
C2088      C2920   1.469       .  S
Cr2089     O2092   1.764       .  S
Cr2090     O2092   1.780       .  S
Cr2091     O2092   1.771       .  S
O2093     Cr2111   1.970       .  S
O2093      C2101   1.268       .  A
O2094     Cr2111   2.001       .  S
O2094      C2095   1.257       .  A
C2095      O2096   1.258       .  A
C2095      C2965   1.469       .  S
O2096     Cr2112   1.990       .  S
O2097     Cr2112   2.010       .  S
O2097      C2098   1.264       .  A
C2098      O2099   1.259       .  A
C2098      C3063   1.481       .  S
O2099     Cr2113   1.983       .  S
O2100     Cr2113   2.036       .  S
O2100      C2101   1.282       .  A
C2101      C2909   1.490       .  S
O2102     Cr2111   1.983       .  S
O2102      C2110   1.254       .  A
O2103     Cr2111   1.976       .  S
O2103      C2104   1.264       .  A
C2104      O2105   1.271       .  A
C2104      C3049   1.456       .  S
O2105     Cr2112   2.000       .  S
O2106     Cr2112   1.928       .  S
O2106      C2107   1.249       .  A
C2107      O2108   1.272       .  A
C2107      C2979   1.475       .  S
O2108     Cr2113   2.042       .  S
O2109     Cr2113   2.011       .  S
O2109      C2110   1.261       .  A
C2110      C2892   1.487       .  S
Cr2111     O2114   1.772       .  S
Cr2112     O2114   1.765       .  S
Cr2113     O2114   1.771       .  S
O2115     Cr2133   2.028       .  S
O2115      C2123   1.272       .  A
O2116     Cr2133   1.949       .  S
O2116      C2117   1.251       .  A
C2117      O2118   1.258       .  A
C2117      C3035   1.461       .  S
O2118     Cr2134   2.006       .  S
O2119     Cr2134   1.996       .  S
O2119      C2120   1.264       .  A
C2120      O2121   1.272       .  A
C2120      C2948   1.489       .  S
O2121     Cr2135   2.009       .  S
O2122     Cr2135   1.968       .  S
O2122      C2123   1.264       .  A
C2123      C2906   1.496       .  S
O2124     Cr2133   1.977       .  S
O2124      C2132   1.258       .  A
O2125     Cr2133   2.041       .  S
O2125      C2126   1.272       .  A
C2126      O2127   1.258       .  A
C2126      C2934   1.478       .  S
O2127     Cr2134   1.962       .  S
O2128     Cr2134   1.983       .  S
O2128      C2129   1.262       .  A
C2129      O2130   1.267       .  A
C2129      C3021   1.471       .  S
O2130     Cr2135   2.007       .  S
O2131     Cr2135   2.024       .  S
O2131      C2132   1.266       .  A
C2132      C2881   1.493       .  S
Cr2133     O2136   1.763       .  S
Cr2134     O2136   1.777       .  S
Cr2135     O2136   1.767       .  S
O2137     Cr2155   1.987       .  S
O2137      C2145   1.265       .  A
O2138     Cr2155   2.026       .  S
O2138      C2139   1.278   1_554  A
C2139      O2140   1.264       .  A
C2139      C2850   1.465       .  S
O2140     Cr2156   1.971   1_556  S
O2141     Cr2156   1.997   1_556  S
O2141      C2142   1.251       .  A
C2142      O2143   1.252   1_556  A
C2142      C2825   1.466       .  S
O2143     Cr2157   1.977       .  S
O2144     Cr2157   2.010       .  S
O2144      C2145   1.270       .  A
C2145      C2811   1.490       .  S
O2146     Cr2155   2.033       .  S
O2146      C2154   1.268       .  A
O2147     Cr2155   2.044       .  S
O2147      C2148   1.269       .  A
C2148      O2149   1.249       .  A
C2148      C2836   1.495       .  S
O2149     Cr2156   1.967       .  S
O2150     Cr2156   1.957       .  S
O2150      C2151   1.260       .  A
C2151      O2152   1.279       .  A
C2151      C2864   1.486       .  S
O2152     Cr2157   2.030       .  S
O2153     Cr2157   1.978       .  S
O2153      C2154   1.259       .  A
C2154      C2794   1.508       .  S
Cr2155     O2158   1.775       .  S
Cr2156     O2158   1.781       .  S
Cr2157     O2158   1.762       .  S
O2159     Cr2177   1.989       .  S
O2159      C2167   1.266       .  A
O2160     Cr2177   1.981       .  S
O2160      C2161   1.264       .  A
C2161      O2162   1.272       .  A
C2161      C2783   1.498   1_554  S
O2162     Cr2178   2.021       .  S
O2163     Cr2178   2.038   1_556  S
O2163      C2164   1.268   1_556  A
C2164      O2165   1.254       .  A
C2164      C2755   1.490   1_554  S
O2165     Cr2179   1.963       .  S
O2166     Cr2179   2.027       .  S
O2166      C2167   1.273       .  A
C2167      C2808   1.503       .  S
O2168     Cr2177   1.996       .  S
O2168      C2176   1.261       .  A
O2169     Cr2177   2.015       .  S
O2169      C2170   1.269       .  A
C2170      O2171   1.266       .  A
C2170      C2738   1.485       .  S
O2171     Cr2178   2.005       .  S
O2172     Cr2178   1.981       .  S
O2172      C2173   1.261       .  A
C2173      O2174   1.269       .  A
C2173      C2766   1.480       .  S
O2174     Cr2179   2.009       .  S
O2175     Cr2179   1.978       .  S
O2175      C2176   1.252       .  A
C2176      C2724   1.485       .  S
Cr2177     O2180   1.768       .  S
Cr2178     O2180   1.781       .  S
Cr2179     O2180   1.777       .  S
O2181     Cr2199   2.041       .  S
O2181      C2189   1.279       .  A
O2182     Cr2199   1.962       .  S
O2182      C2183   1.255       .  A
C2183      O2184   1.262   1_556  A
C2183      C2867   1.477   1_556  S
O2184     Cr2200   2.018   1_554  S
O2185     Cr2200   1.994   1_554  S
O2185      C2186   1.262   1_554  A
C2186      O2187   1.268       .  A
C2186      C2741   1.486   1_556  S
O2187     Cr2201   1.996       .  S
O2188     Cr2201   1.973       .  S
O2188      C2189   1.263       .  A
C2189      C2713   1.505       .  S
O2190     Cr2199   1.981       .  S
O2190      C2198   1.257       .  A
O2191     Cr2199   2.045       .  S
O2191      C2192   1.275       .  A
C2192      O2193   1.252       .  A
C2192      C2752   1.473       .  S
O2193     Cr2200   1.945       .  S
O2194     Cr2200   1.994       .  S
O2194      C2195   1.266       .  A
C2195      O2196   1.268       .  A
C2195      C2853   1.474       .  S
O2196     Cr2201   2.002       .  S
O2197     Cr2201   2.023       .  S
O2197      C2198   1.263       .  A
C2198      C2878   1.497       .  S
Cr2199     O2202   1.766       .  S
Cr2200     O2202   1.778       .  S
Cr2201     O2202   1.771       .  S
O2203     Cr2221   1.986       .  S
O2203      C2211   1.270       .  A
O2204     Cr2221   1.988       .  S
O2204      C2205   1.256       .  A
C2205      O2206   1.262   1_556  A
C2205      C2769   1.475   1_556  S
O2206     Cr2222   2.005   1_554  S
O2207     Cr2222   2.019   1_554  S
O2207      C2208   1.264   1_554  A
C2208      O2209   1.262       .  A
C2208      C2839   1.490   1_556  S
O2209     Cr2223   1.978       .  S
O2210     Cr2223   2.035       .  S
O2210      C2211   1.275       .  A
C2211      C2710   1.505       .  S
O2212     Cr2221   1.982       .  S
O2212      C2220   1.258       .  A
O2213     Cr2221   1.996       .  S
O2213      C2214   1.268       .  A
C2214      O2215   1.270       .  A
C2214      C2822   1.476       .  S
O2215     Cr2222   2.011       .  S
O2216     Cr2222   1.974       .  S
O2216      C2217   1.260       .  A
C2217      O2218   1.267       .  A
C2217      C2780   1.479       .  S
O2218     Cr2223   2.018       .  S
O2219     Cr2223   2.014       .  S
O2219      C2220   1.260       .  A
C2220      C2895   1.499       .  S
Cr2221     O2224   1.770       .  S
Cr2222     O2224   1.779       .  S
Cr2223     O2224   1.778       .  S
O2225     Cr2243   1.986       .  S
O2225      C2233   1.269       .  A
O2226     Cr2243   2.007       .  S
O2226      C2227   1.267       .  A
C2227      O2228   1.260       .  A
C2227      C2696   1.463       .  S
O2228     Cr2244   1.976       .  S
O2229     Cr2244   2.010       .  S
O2229      C2230   1.260       .  A
C2230      O2231   1.256       .  A
C2230      C2657   1.487       .  S
O2231     Cr2245   1.979       .  S
O2232     Cr2245   2.036       .  S
O2232      C2233   1.279       .  A
C2233      C2640   1.501       .  S
O2234     Cr2243   1.998       .  S
O2234      C2242   1.256       .  A
O2235     Cr2243   2.029       .  S
O2235      C2236   1.270       .  A
C2236      O2237   1.264       .  A
C2236      C2671   1.489       .  S
O2237     Cr2244   1.984       .  S
O2238     Cr2244   1.934       .  S
O2238      C2239   1.250       .  A
C2239      O2240   1.278       .  A
C2239      C2682   1.496       .  S
O2240     Cr2245   2.052       .  S
O2241     Cr2245   1.990       .  S
O2241      C2242   1.257       .  A
C2242      C2993   1.478       .  S
Cr2243     O2246   1.775       .  S
Cr2244     O2246   1.774       .  S
Cr2245     O2246   1.770       .  S
O2247     Cr2265   2.041       .  S
O2247      C2255   1.279       .  A
O2248     Cr2265   1.962       .  S
O2248      C2249   1.253       .  A
C2249      O2250   1.259       .  A
C2249      C2685   1.465       .  S
O2250     Cr2266   2.002       .  S
O2251     Cr2266   1.980       .  S
O2251      C2252   1.262       .  A
C2252      O2253   1.270       .  A
C2252      C2612   1.474       .  S
O2253     Cr2267   2.015       .  S
O2254     Cr2267   1.984       .  S
O2254      C2255   1.264       .  A
C2255      C2598   1.500       .  S
O2256     Cr2265   1.975       .  S
O2256      C2264   1.252       .  A
O2257     Cr2265   2.034       .  S
O2257      C2258   1.272       .  A
C2258      O2259   1.254       .  A
C2258      C2626   1.469       .  S
O2259     Cr2266   1.945       .  S
O2260     Cr2266   1.987       .  S
O2260      C2261   1.261       .  A
C2261      O2262   1.265       .  A
C2261      C2699   1.475       .  S
O2262     Cr2267   1.998       .  S
O2263     Cr2267   2.019       .  S
O2263      C2264   1.264       .  A
C2264      C2584   1.494       .  S
Cr2265     O2268   1.771       .  S
Cr2266     O2268   1.781       .  S
Cr2267     O2268   1.778       .  S
O2269     Cr2287   1.991       .  S
O2269      C2277   1.269       .  A
O2270     Cr2287   1.998       .  S
O2270      C2271   1.267       .  A
C2271      O2272   1.266       .  A
C2271      C2570   1.475   1_545  S
O2272     Cr2288   1.997       .  S
O2273     Cr2288   2.008       .  S
O2273      C2274   1.259       .  A
C2274      O2275   1.257       .  A
C2274      C2668   1.479       .  S
O2275     Cr2289   1.974       .  S
O2276     Cr2289   2.010       .  S
O2276      C2277   1.269       .  A
C2277      C2601   1.493       .  S
O2278     Cr2287   1.988       .  S
O2278      C2286   1.259       .  A
O2279     Cr2287   2.019       .  S
O2279      C2280   1.266       .  A
C2280      O2281   1.260       .  A
C2280      C2654   1.480       .  S
O2281     Cr2288   1.988       .  S
O2282     Cr2288   1.970       .  S
O2282      C2283   1.258       .  A
C2283      O2284   1.266       .  A
C2283      C2559   1.459       .  S
O2284     Cr2289   2.003       .  S
O2285     Cr2289   1.983       .  S
O2285      C2286   1.255       .  A
C2286      C2542   1.473       .  S
Cr2287     O2290   1.773       .  S
Cr2288     O2290   1.778       .  S
Cr2289     O2290   1.779       .  S
O2291     Cr2309   2.003       .  S
O2291      C2299   1.269       .  A
O2292     Cr2309   1.977       .  S
O2292      C2293   1.261       .  A
C2293      O2294   1.271       .  A
C2293      C2556   1.480       .  S
O2294     Cr2310   2.001       .  S
O2295     Cr2310   2.034       .  S
O2295      C2296   1.263       .  A
C2296      O2297   1.253       .  A
C2296      C2629   1.485       .  S
O2297     Cr2311   1.960       .  S
O2298     Cr2311   2.017       .  S
O2298      C2299   1.271       .  A
C2299      C2643   1.508       .  S
O2300     Cr2309   1.992       .  S
O2300      C2308   1.258       .  A
O2301     Cr2309   2.023       .  S
O2301      C2302   1.270       .  A
C2302      O2303   1.264       .  A
C2302      C2615   1.484       .  S
O2303     Cr2310   1.987       .  S
O2304     Cr2310   1.971       .  S
O2304      C2305   1.261       .  A
C2305      O2306   1.271       .  A
C2305      C2573   1.483       .  S
O2306     Cr2311   2.029       .  S
O2307     Cr2311   1.973       .  S
O2307      C2308   1.258       .  A
C2308      C2923   1.483       .  S
Cr2309     O2312   1.771       .  S
Cr2310     O2312   1.774       .  S
Cr2311     O2312   1.758       .  S
O2313     Cr2331   2.031       .  S
O2313      C2321   1.275       .  A
O2314     Cr2331   1.965       .  S
O2314      C2315   1.251       .  A
C2315      O2316   1.259       .  A
C2315      C2517   1.482       .  S
O2316     Cr2332   2.011       .  S
O2317     Cr2332   1.993       .  S
O2317      C2318   1.268       .  A
C2318      O2319   1.272       .  A
C2318      C2486   1.472   1_655  S
O2319     Cr2333   2.004       .  S
O2320     Cr2333   1.995       .  S
O2320      C2321   1.270       .  A
C2321      C2472   1.513       .  S
O2322     Cr2331   1.970       .  S
O2322      C2330   1.250       .  A
O2323     Cr2331   2.015       .  S
O2323      C2324   1.275       .  A
C2324      O2325   1.258       .  A
C2324      C2500   1.478       .  S
O2325     Cr2332   1.961       .  S
O2326     Cr2332   1.978       .  S
O2326      C2327   1.254       .  A
C2327      O2328   1.274       .  A
C2327      C2531   1.506       .  S
O2328     Cr2333   2.048       .  S
O2329     Cr2333   2.019       .  S
O2329      C2330   1.264       .  A
C2330      C2587   1.493       .  S
Cr2331     O2334   1.772       .  S
Cr2332     O2334   1.779       .  S
Cr2333     O2334   1.771       .  S
O2335     Cr2353   2.036       .  S
O2335      C2343   1.277       .  A
O2336     Cr2353   1.962       .  S
O2336      C2337   1.252       .  A
C2337      O2338   1.257       .  A
C2337      C2444   1.476       .  S
O2338     Cr2354   2.004       .  S
O2339     Cr2354   1.985       .  S
O2339      C2340   1.264       .  A
C2340      O2341   1.266       .  A
C2340      C2503   1.465       .  S
O2341     Cr2355   2.005       .  S
O2342     Cr2355   1.980       .  S
O2342      C2343   1.269       .  A
C2343      C2430   1.502       .  S
O2344     Cr2353   1.976       .  S
O2344      C2352   1.252       .  A
O2345     Cr2353   2.043       .  S
O2345      C2346   1.275       .  A
C2346      O2347   1.257       .  A
C2346      C2489   1.493       .  S
O2347     Cr2354   1.936       .  S
O2348     Cr2354   1.978       .  S
O2348      C2349   1.261       .  A
C2349      O2350   1.268       .  A
C2349      C2458   1.487       .  S
O2350     Cr2355   2.019       .  S
O2351     Cr2355   1.996       .  S
O2351      C2352   1.257       .  A
C2352      C2727   1.470       .  S
Cr2353     O2356   1.777       .  S
Cr2354     O2356   1.772       .  S
Cr2355     O2356   1.774       .  S
O2357     Cr2375   2.043       .  S
O2357      C2365   1.278       .  A
O2358     Cr2375   1.952       .  S
O2358      C2359   1.252       .  A
C2359      O2360   1.261       .  A
C2359      C2461   1.469       .  S
O2360     Cr2376   2.010       .  S
O2361     Cr2376   1.980       .  S
O2361      C2362   1.261       .  A
C2362      O2363   1.268       .  A
C2362      C2405   1.466       .  S
O2363     Cr2377   2.012       .  S
O2364     Cr2377   1.971       .  S
O2364      C2365   1.265       .  A
C2365      C2475   1.501       .  S
O2366     Cr2375   1.973       .  S
O2366      C2374   1.254       .  A
O2367     Cr2375   2.040       .  S
O2367      C2368   1.276       .  A
C2368      O2369   1.255       .  A
C2368      C2416   1.493       .  S
O2369     Cr2376   1.957       .  S
O2370     Cr2376   1.986       .  S
O2370      C2371   1.265       .  A
C2371      O2372   1.266       .  A
C2371      C2447   1.481       .  S
O2372     Cr2377   2.009       .  S
O2373     Cr2377   2.007       .  S
O2373      C2374   1.260       .  A
C2374      C2545   1.481       .  S
Cr2375     O2378   1.761       .  S
Cr2376     O2378   1.771       .  S
Cr2377     O2378   1.771       .  S
O2379     Cr2397   1.979       .  S
O2379      C2387   1.266       .  A
O2380     Cr2397   2.008       .  S
O2380      C2381   1.269       .  A
C2381      O2382   1.267       .  A
C2381      C2528   1.498       .  S
O2382     Cr2398   2.008       .  S
O2383     Cr2398   2.023       .  S
O2383      C2384   1.264       .  A
C2384      O2385   1.258       .  A
C2384      C2419   1.485       .  S
O2385     Cr2399   1.974       .  S
O2386     Cr2399   2.040       .  S
O2386      C2387   1.279       .  A
C2387      C2433   1.504       .  S
O2388     Cr2397   2.020       .  S
O2388      C2396   1.262       .  A
O2389     Cr2397   2.006       .  S
O2389      C2390   1.267       .  A
C2390      O2391   1.265       .  A
C2390      C2402   1.472       .  S
O2391     Cr2398   1.989       .  S
O2392     Cr2398   1.954       .  S
O2392      C2393   1.254       .  A
C2393      O2394   1.272       .  A
C2393      C2514   1.474       .  S
O2394     Cr2399   2.034       .  S
O2395     Cr2399   1.998       .  S
O2395      C2396   1.258       .  A
C2396      C2797   1.504       .  S
Cr2397     O2400   1.776       .  S
Cr2398     O2400   1.783       .  S
Cr2399     O2400   1.773       .  S
C2401      C2402   1.404       .  A
C2401      C2406   1.392       .  A
C2401      H2408   1.084       .  S
C2402      C2403   1.408       .  A
C2403      N2410   1.428       .  S
C2404      C2405   1.404       .  A
C2404      H2409   1.085       .  S
C2406      N2407   1.428       .  S
N2407      O2411   1.261       .  A
N2410      O2413   1.262       .  A
C2415      C2416   1.403       .  A
C2415      C2420   1.406       .  A
C2415      H2422   1.084       .  S
C2416      C2417   1.422       .  A
C2417      C2418   1.400       .  A
C2417      N2424   1.430       .  S
C2418      C2419   1.397       .  A
C2418      H2423   1.085       .  S
C2419      C2420   1.415       .  A
C2420      N2421   1.424       .  S
N2421      O2425   1.262       .  A
N2421      O2426   1.262       .  A
N2424      O2428   1.262       .  A
N2424      O2427   1.262       .  A
C2429      C2430   1.406       .  A
C2429      C2434   1.403       .  A
C2429      H2436   1.084       .  S
C2430      C2431   1.417       .  A
C2431      C2432   1.411       .  A
C2431      N2438   1.428       .  S
C2432      C2433   1.408       .  A
C2432      H2437   1.084       .  S
C2433      C2434   1.418       .  A
C2434      N2435   1.428       .  S
N2435      O2439   1.262       .  A
N2435      O2440   1.262       .  A
N2438      O2442   1.262       .  A
N2438      O2441   1.262       .  A
C2443      C2444   1.407       .  A
C2443      C2448   1.412       .  A
C2443      H2450   1.084       .  S
C2444      C2445   1.408       .  A
C2445      C2446   1.387       .  A
C2445      N2452   1.429       .  S
C2446      C2447   1.401       .  A
C2446      H2451   1.086       .  S
C2447      C2448   1.415       .  A
C2448      N2449   1.429       .  S
N2449      O2453   1.262       .  A
N2449      O2454   1.262       .  A
N2452      O2456   1.261       .  A
N2452      O2455   1.262       .  A
C2457      C2458   1.404       .  A
C2457      C3486   1.383       .  A
C2457      H2464   1.086       .  S
C2458      C2459   1.412       .  A
C2459      C2460   1.406       .  A
C2459      N2466   1.418       .  S
C2460      C3485   1.399       .  A
C2460      H2465   1.087       .  S
C2461      C3484   1.403       .  A
C2461      C2462   1.403   1_545  A
C2462      C3481   1.383       .  A
C2462      N2463   1.431       .  S
N2463      O2467   1.261       .  A
N2463      O2468   1.262   1_565  A
N2466      O2470   1.261       .  A
N2466      O2469   1.262       .  A
C2471      C2476   1.412       .  A
C2471      H2478   1.082       .  S
C2472      C3497   1.419       .  A
C2473      C3496   1.415   1_545  A
C2473      C2474   1.406       .  A
C2473      N2480   1.425       .  S
C2474      H2479   1.084       .  S
C2475      C3500   1.414   1_545  A
C2476      C3499   1.417       .  A
C2476      N2477   1.427       .  S
N2477      O2481   1.262       .  A
N2477      O2482   1.261       .  A
N2480      O2484   1.261       .  A
N2480      O2483   1.262       .  A
C2485      C2490   1.410       .  A
C2485      H2492   1.083       .  S
C2486      C2487   1.405       .  A
C2487      N2494   1.428       .  S
C2488      C2489   1.409       .  A
C2488      H2493   1.085       .  S
C2489      C2490   1.414       .  A
C2490      N2491   1.427       .  S
N2491      O2495   1.262       .  A
N2491      O2496   1.261       .  A
N2494      O2498   1.262       .  A
N2494      O2497   1.262       .  A
C2499      C2500   1.395       .  A
C2499      C2504   1.392       .  A
C2499      H2506   1.085       .  S
C2500      C2501   1.419       .  A
C2501      C2502   1.400       .  A
C2501      N2508   1.424       .  S
C2502      C2503   1.393       .  A
C2502      H2507   1.085       .  S
C2503      C2504   1.411       .  A
C2504      N2505   1.423       .  S
N2505      O2509   1.262       .  A
N2505      O2510   1.262       .  A
N2508      O2512   1.261       .  A
N2508      O2511   1.261       .  A
C2513      C2514   1.396       .  A
C2513      C2518   1.392       .  A
C2513      H2520   1.080       .  S
C2514      C2515   1.410       .  A
C2515      C2516   1.411       .  A
C2515      N2522   1.427       .  S
C2516      C3541   1.407   1_545  A
C2516      H3545   1.084   1_545  S
C2517      C3540   1.408       .  A
C2517      C3542   1.413       .  A
C2518      C3541   1.414   1_545  A
C2518      N3543   1.432       .  S
N2519      C3542   1.431       .  S
N2519      O3547   1.261       .  A
N2519      O2524   1.262       .  A
H2521      C3540   1.085       .  S
N2522      O2526   1.261       .  A
N2522      O2525   1.262       .  A
O2523      N3543   1.261       .  A
C2527      C2528   1.398       .  A
C2527      C2532   1.391       .  A
C2527      H2534   1.084       .  S
C2528      C2529   1.418       .  A
C2529      C2530   1.420       .  A
C2529      N2536   1.427       .  S
C2530      C2531   1.410       .  A
C2530      H2535   1.084       .  S
C2531      C2532   1.426       .  A
C2532      N2533   1.432       .  S
N2533      O2537   1.262       .  A
N2533      O2538   1.262       .  A
N2536      O2540   1.261       .  A
N2536      O2539   1.262       .  A
C2541      C2542   1.400       .  A
C2541      C2546   1.398       .  A
C2541      H2548   1.085       .  S
C2542      C2543   1.410       .  A
C2543      C2544   1.403       .  A
C2543      N2550   1.428       .  S
C2544      C2545   1.406       .  A
C2544      H2549   1.084       .  S
C2545      C2546   1.413       .  A
C2546      N2547   1.429       .  S
N2547      O2551   1.262       .  A
N2547      O2552   1.262       .  A
N2550      O2554   1.262       .  A
N2550      O2553   1.262       .  A
C2555      C2556   1.403       .  A
C2555      C2560   1.403       .  A
C2555      H2562   1.084       .  S
C2556      C2557   1.423       .  A
C2557      C2558   1.389       .  A
C2557      N2564   1.431       .  S
C2558      C2559   1.391       .  A
C2558      H2563   1.086       .  S
C2559      C2560   1.408       .  A
C2560      N2561   1.427       .  S
N2561      O2565   1.261       .  A
N2561      O2566   1.262       .  A
N2564      O2568   1.262       .  A
N2564      O2567   1.262       .  A
C2569      C3594   1.408       .  A
C2569      C2574   1.400       .  A
C2569      H3600   1.086       .  S
C2570      C3593   1.406       .  A
C2570      C3595   1.407       .  A
C2571      C3594   1.406       .  A
C2571      C2572   1.405       .  A
C2571      N3602   1.427       .  S
C2572      C2573   1.409       .  A
C2572      H2577   1.085       .  S
C2573      C2574   1.410       .  A
C2574      N2575   1.430       .  S
N2575      O2579   1.262       .  A
N2575      O2580   1.262       .  A
H2576      C3593   1.086   1_545  S
N2578      C3595   1.427       .  S
N2578      O3606   1.261       .  A
N2578      O2581   1.262       .  A
O2582      N3602   1.261       .  A
C2583      C2584   1.404       .  A
C2583      C2588   1.405       .  A
C2583      H2590   1.085       .  S
C2584      C2585   1.418       .  A
C2585      C2586   1.404       .  A
C2585      N2592   1.429       .  S
C2586      C2587   1.403       .  A
C2586      H2591   1.085       .  S
C2587      C2588   1.418       .  A
C2588      N2589   1.429       .  S
N2589      O2593   1.262       .  A
N2589      O2594   1.262       .  A
N2592      O2596   1.262       .  A
N2592      O2595   1.262       .  A
C2597      C3622   1.403   1_545  A
C2597      C2602   1.405       .  A
C2597      H2604   1.085       .  S
C2598      C3621   1.403       .  A
C2598      C2599   1.420       .  A
C2599      C2600   1.412       .  A
C2599      N2606   1.429       .  S
C2600      C3625   1.403       .  A
C2600      H2605   1.084       .  S
C2601      C3624   1.403   1_545  A
C2601      C2602   1.417       .  A
C2602      N2603   1.428       .  S
N2603      O2607   1.261       .  A
N2603      O2608   1.262       .  A
N2606      O2610   1.261       .  A
N2606      O2609   1.262       .  A
C2611      C2612   1.408       .  A
C2611      C2616   1.412       .  A
C2611      H2618   1.085       .  S
C2612      C2613   1.402       .  A
C2613      C2614   1.389       .  A
C2613      N2620   1.426       .  S
C2614      C2615   1.404       .  A
C2614      H2619   1.085       .  S
C2615      C2616   1.412       .  A
C2616      N2617   1.427       .  S
N2617      O2621   1.262       .  A
N2617      O2622   1.262       .  A
N2620      O2624   1.261       .  A
N2620      O2623   1.261       .  A
C2625      C2626   1.405       .  A
C2625      H2632   1.084       .  S
C2626      C2627   1.408       .  A
C2627      N2634   1.430       .  S
C2628      C2629   1.403       .  A
C2628      H2633   1.085       .  S
C2629      C2630   1.415       .  A
C2630      N2631   1.427       .  S
N2631      O2635   1.262       .  A
N2631      O2636   1.262       .  A
N2634      O2638   1.261       .  A
N2634      O2637   1.262       .  A
C2639      C2644   1.414       .  A
C2639      H2646   1.079       .  S
C2640      C2641   1.415       .  A
C2641      N2648   1.429       .  S
C2642      C2643   1.409       .  A
C2643      C2644   1.416       .  A
C2644      N2645   1.430       .  S
N2645      O2649   1.262       .  A
N2645      O2650   1.262       .  A
N2648      O2652   1.261       .  A
N2648      O2651   1.262       .  A
C2653      C2654   1.401       .  A
C2653      C2658   1.391       .  A
C2653      H2660   1.085       .  S
C2654      C2655   1.409       .  A
C2655      N2662   1.426       .  S
C2656      C2657   1.409       .  A
C2656      H2661   1.085       .  S
C2658      N2659   1.427       .  S
N2659      O2663   1.261       .  A
N2659      O2664   1.262       .  A
N2662      O2666   1.262       .  A
N2662      O2665   1.262       .  A
C2667      C2668   1.408       .  A
C2667      C2672   1.417       .  A
C2667      H2674   1.084       .  S
C2668      C2669   1.406       .  A
C2669      C2670   1.389       .  A
C2669      N2676   1.430       .  S
C2670      C2671   1.402       .  A
C2670      H2675   1.082       .  S
C2671      C2672   1.416       .  A
C2672      N2673   1.428       .  S
N2673      O2677   1.262       .  A
N2673      O2678   1.262       .  A
N2676      O2680   1.262       .  A
N2676      O2679   1.262       .  A
C2681      C2682   1.408       .  A
C2681      C3710   1.409   1_545  A
C2681      H2688   1.083       .  S
C2682      C2683   1.428       .  A
C2683      C2684   1.389       .  A
C2683      N2690   1.430       .  S
C2684      C3709   1.390   1_545  A
C2684      H2689   1.086       .  S
C2685      C3708   1.394       .  A
C2685      C2686   1.410       .  A
C2686      C3705   1.400       .  A
C2686      N2687   1.430       .  S
N2687      O2691   1.262       .  A
N2687      O2692   1.261       .  A
N2690      O2694   1.260       .  A
N2690      O2693   1.262       .  A
C2695      C2696   1.392       .  A
C2695      C2700   1.392       .  A
C2695      H2702   1.085       .  S
C2696      C2697   1.411       .  A
C2697      C2698   1.403       .  A
C2697      N2704   1.427       .  S
C2698      C2699   1.401       .  A
C2698      H2703   1.085       .  S
C2699      C2700   1.417       .  A
C2700      N2701   1.429       .  S
N2701      O2705   1.262       .  A
N2701      O2706   1.262       .  A
N2704      O2708   1.261       .  A
N2704      O2707   1.261       .  A
C2709      C2710   1.406       .  A
C2709      C2714   1.403       .  A
C2709      H2716   1.084       .  S
C2711      C2712   1.410   1_455  A
C2711      N2718   1.428   1_455  S
C2712      C2713   1.407       .  A
C2712      H2717   1.084       .  S
C2714      N2715   1.429       .  S
N2715      O2719   1.262       .  A
N2715      O2720   1.262       .  A
N2718      O2722   1.262       .  A
N2718      O2721   1.262       .  A
C2723      C2724   1.402       .  A
C2723      C2728   1.394       .  A
C2723      H2730   1.084       .  S
C2724      C2725   1.416       .  A
C2725      C2726   1.402       .  A
C2725      N2732   1.427       .  S
C2726      C2727   1.399       .  A
C2726      H2731   1.085       .  S
C2727      C2728   1.403       .  A
C2728      N2729   1.420       .  S
N2729      O2733   1.261       .  A
N2729      O2734   1.262       .  A
N2732      O2736   1.262       .  A
N2732      O2735   1.262       .  A
C2737      C2738   1.406       .  A
C2737      C2742   1.416       .  A
C2737      H2744   1.082       .  S
C2738      C2739   1.407       .  A
C2739      N2746   1.426       .  S
C2740      C2741   1.401   1_455  A
C2740      H2745   1.085   1_454  S
C2742      N2743   1.428       .  S
N2743      O2747   1.262       .  A
N2743      O2748   1.262       .  A
N2746      O2750   1.262       .  A
N2746      O2749   1.262   1_554  A
C2751      C2752   1.395   1_554  A
C2751      C2756   1.393       .  A
C2751      H2758   1.081       .  S
C2752      C2753   1.410       .  A
C2753      C2754   1.415       .  A
C2753      N2760   1.428       .  S
C2754      C2755   1.410       .  A
C2754      H2759   1.083       .  S
C2755      C2756   1.416   1_556  A
C2756      N2757   1.430       .  S
N2757      O2761   1.261       .  A
N2757      O2762   1.262       .  A
N2760      O2764   1.262       .  A
N2760      O2763   1.262       .  A
C2765      C2766   1.397       .  A
C2765      C2770   1.395       .  A
C2765      H2772   1.083       .  S
C2766      C2767   1.414       .  A
C2767      C2768   1.404       .  A
C2767      N2774   1.425       .  S
C2768      C2769   1.399       .  A
C2768      H2773   1.085       .  S
C2769      C2770   1.414       .  A
C2770      N2771   1.428       .  S
N2771      O2775   1.261   1_554  A
N2771      O2776   1.262       .  A
N2774      O2778   1.262       .  A
N2774      O2777   1.261       .  A
C2779      C2780   1.406       .  A
C2779      C3808   1.414       .  A
C2779      H2786   1.074       .  S
C2780      C2781   1.396       .  A
C2781      C2782   1.391       .  A
C2781      N2788   1.426       .  S
C2782      C3807   1.410   1_545  A
C2782      H2787   1.079   1_556  S
C2783      C3806   1.412   1_556  A
C2783      C2784   1.415       .  A
C2784      C3803   1.415       .  A
C2784      N2785   1.427       .  S
N2785      O2789   1.262       .  A
N2785      O2790   1.262       .  A
N2788      O2792   1.261   1_556  A
N2788      O2791   1.261       .  A
C2793      C2794   1.408       .  A
C2793      C2798   1.405       .  A
C2793      H2800   1.085       .  S
C2794      C2795   1.419       .  A
C2795      C2796   1.414       .  A
C2795      N2802   1.428       .  S
C2796      C2797   1.409       .  A
C2796      H2801   1.085       .  S
C2797      C2798   1.415       .  A
C2798      N2799   1.429       .  S
N2799      O2803   1.262       .  A
N2799      O2804   1.262       .  A
N2802      O2806   1.262       .  A
N2802      O2805   1.262       .  A
C2807      C3832   1.406   1_545  A
C2807      C2812   1.399       .  A
C2807      H2814   1.085       .  S
C2808      C3831   1.409       .  A
C2808      C2809   1.416       .  A
C2809      C2810   1.405       .  A
C2809      N2816   1.428       .  S
C2810      C3835   1.407       .  A
C2810      H2815   1.084       .  S
C2811      C3834   1.405   1_545  A
C2811      C2812   1.411       .  A
C2812      N2813   1.426       .  S
N2813      O2817   1.260       .  A
N2813      O2818   1.261       .  A
N2816      O2820   1.262       .  A
N2816      O2819   1.262       .  A
C2821      C2822   1.402       .  A
C2821      C2826   1.404       .  A
C2821      H2828   1.100       .  S
C2822      C2823   1.410       .  A
C2823      C2824   1.391       .  A
C2823      N2830   1.420       .  S
C2824      C2825   1.388       .  A
C2824      H2829   1.096       .  S
C2825      C2826   1.409       .  A
C2826      N2827   1.428       .  S
N2827      O2831   1.262       .  A
N2827      O2832   1.261   1_556  A
N2830      O2834   1.262       .  A
N2830      O2833   1.261       .  A
C2835      C2836   1.407       .  A
C2835      H2842   1.084       .  S
C2836      C2837   1.420   1_554  A
C2837      C2838   1.389       .  A
C2837      N2844   1.431       .  S
C2839      C2840   1.419       .  A
C2840      N2841   1.427       .  S
N2841      O2845   1.262       .  A
N2841      O2846   1.262       .  A
N2844      O2848   1.262       .  A
N2844      O2847   1.262       .  A
C2849      C2850   1.404       .  A
C2849      C3878   1.405   1_545  A
C2849      H2856   1.084       .  S
C2850      C3875   1.401   1_545  A
C2851      C3874   1.400       .  A
C2851      C2852   1.399       .  A
C2851      N2858   1.426   1_556  S
C2852      C2853   1.407       .  A
C2852      H2857   1.084       .  S
C2853      C2854   1.408       .  A
C2854      C3873   1.403       .  A
C2854      N2855   1.428       .  S
N2855      O3883   1.262       .  A
N2855      O2860   1.262       .  A
N2858      O2862   1.260       .  A
N2858      O3885   1.262       .  A
O2859      N3879   1.262       .  A
O2861      N3882   1.262       .  A
C2863      C2864   1.402       .  A
C2863      C2868   1.400       .  A
C2863      H2870   1.085       .  S
C2864      C2865   1.418       .  A
C2865      C2866   1.396       .  A
C2865      N2872   1.427       .  S
C2866      C2867   1.399       .  A
C2866      H2871   1.086   1_554  S
C2867      C2868   1.412       .  A
C2868      N2869   1.425       .  S
N2869      O2873   1.262       .  A
N2869      O2874   1.262       .  A
N2872      O2876   1.260       .  A
N2872      O2875   1.262   1_554  A
C2877      C2878   1.407       .  A
C2877      C2882   1.404       .  A
C2877      H2884   1.084       .  S
C2878      C2879   1.417       .  A
C2879      C2880   1.405       .  A
C2879      N2886   1.429       .  S
C2880      C2881   1.406       .  A
C2880      H2885   1.084       .  S
C2881      C2882   1.414       .  A
C2882      N2883   1.429       .  S
N2883      O2887   1.262       .  A
N2883      O2888   1.262       .  A
N2886      O2890   1.262       .  A
N2886      O2889   1.262       .  A
C2891      C2892   1.406       .  A
C2891      C2896   1.414       .  A
C2891      H2898   1.084       .  S
C2892      C2893   1.413       .  A
C2893      C2894   1.392       .  A
C2893      N2900   1.431       .  S
C2894      C2895   1.407       .  A
C2894      H2899   1.084       .  S
C2895      C2896   1.418       .  A
C2896      N2897   1.427       .  S
N2897      O2901   1.262       .  A
N2897      O2902   1.262       .  A
N2900      O2904   1.262       .  A
N2900      O2903   1.262       .  A
C2905      C2906   1.407       .  A
C2905      C2910   1.400       .  A
C2905      H2912   1.084       .  S
C2906      C2907   1.416       .  A
C2907      C2908   1.402       .  A
C2907      N2914   1.425       .  S
C2908      C2909   1.404       .  A
C2908      H2913   1.084       .  S
C2909      C2910   1.414       .  A
C2910      N2911   1.429       .  S
N2911      O2915   1.262       .  A
N2911      O2916   1.262       .  A
N2914      O2918   1.261       .  A
N2914      O2917   1.262       .  A
C2919      C2920   1.398       .  A
C2919      C2924   1.397       .  A
C2919      H2926   1.085       .  S
C2920      C2921   1.410       .  A
C2921      C2922   1.396       .  A
C2921      N2928   1.429       .  S
C2922      C2923   1.405       .  A
C2922      H2927   1.085       .  S
C2923      C2924   1.418       .  A
C2924      N2925   1.429       .  S
N2925      O2929   1.262       .  A
N2925      O2930   1.262       .  A
N2928      O2932   1.262       .  A
N2928      O2931   1.262       .  A
C2933      C2934   1.406       .  A
C2933      C2938   1.404       .  A
C2933      H2940   1.085       .  S
C2934      C2935   1.411       .  A
C2935      N2942   1.428       .  S
C2936      C2937   1.402       .  A
C2936      H2941   1.085       .  S
C2938      N2939   1.427   1_655  S
N2939      O2943   1.261       .  A
N2942      O2946   1.262       .  A
N2942      O2945   1.262       .  A
C2947      C2948   1.403       .  A
C2947      C2952   1.389       .  A
C2947      H2954   1.085       .  S
C2948      C2949   1.416       .  A
C2949      C2950   1.413       .  A
C2949      N2956   1.428       .  S
C2950      C2951   1.404       .  A
C2950      H2955   1.082       .  S
C2951      C2952   1.407       .  A
C2952      N2953   1.428       .  S
N2953      O2957   1.262       .  A
N2953      O2958   1.262       .  A
N2956      O2960   1.262       .  A
N2956      O2959   1.262       .  A
C2961      C2962   1.401       .  A
C2961      C2966   1.398       .  A
C2961      H2968   1.084       .  S
C2962      C2963   1.416       .  A
C2963      C2964   1.398       .  A
C2963      N2970   1.426       .  S
C2964      C2965   1.395       .  A
C2964      H2969   1.085       .  S
C2965      C2966   1.413       .  A
C2966      N2967   1.429       .  S
N2967      O2971   1.261       .  A
N2967      O2972   1.262       .  A
N2970      O2974   1.262       .  A
N2970      O2973   1.262       .  A
C2975      C4000   1.399   1_545  A
C2975      C2980   1.381       .  A
C2975      H2982   1.086       .  S
C2976      C3999   1.406       .  A
C2976      C2977   1.416       .  A
C2977      C4002   1.418       .  A
C2977      N2984   1.428       .  S
C2978      C4001   1.417   1_545  A
C2978      C2979   1.407       .  A
C2978      H2983   1.084       .  S
C2979      C2980   1.412       .  A
C2980      N2981   1.432       .  S
N2981      O2985   1.261       .  A
N2981      O2986   1.262       .  A
N2984      O2988   1.262       .  A
N2984      O2987   1.262       .  A
C2989      C2990   1.404       .  A
C2989      C2994   1.398       .  A
C2989      H2996   1.084       .  S
C2990      C2991   1.419       .  A
C2991      C2992   1.407       .  A
C2991      N2998   1.428       .  S
C2992      C2993   1.400       .  A
C2992      H2997   1.084       .  S
C2993      C2994   1.411       .  A
C2994      N2995   1.429       .  S
N2995      O2999   1.262       .  A
N2995      O3000   1.262       .  A
N2998      O3002   1.262       .  A
N2998      O3001   1.262       .  A
C3003      C4028   1.406   1_545  A
C3003      C3008   1.405       .  A
C3003      H3010   1.085       .  S
C3004      C4027   1.406       .  A
C3005      C3006   1.406       .  A
C3005      N3012   1.429       .  S
C3006      C4031   1.406       .  A
C3006      H3011   1.083       .  S
C3007      C4030   1.407       .  A
C3008      N3009   1.429       .  S
N3009      O3013   1.262       .  A
N3009      O3014   1.262       .  A
N3012      O3016   1.262       .  A
N3012      O3015   1.262       .  A
C3017      C4042   1.410       .  A
C3017      C3022   1.405       .  A
C3017      H4048   1.084       .  S
C3018      C4041   1.408   1_545  A
C3018      C4043   1.411   1_545  A
C3019      C4042   1.411       .  A
C3019      C3020   1.390       .  A
C3019      N4050   1.429       .  S
C3020      C3021   1.402       .  A
C3020      H3025   1.085       .  S
C3021      C3022   1.407       .  A
C3022      N3023   1.428       .  S
N3023      O3027   1.262       .  A
N3023      O3028   1.262       .  A
H3024      C4041   1.084   1_545  S
N3026      C4043   1.431       .  S
N3026      O3030   1.261       .  A
N3026      O3029   1.262       .  A
C3031      C3032   1.401       .  A
C3031      C3036   1.373       .  A
C3031      H3038   1.080       .  S
C3032      C3033   1.414       .  A
C3033      C3034   1.409       .  A
C3033      N3040   1.428       .  S
C3034      C3035   1.406       .  A
C3034      H3039   1.084       .  S
C3035      C3036   1.405       .  A
C3036      N3037   1.433       .  S
N3037      O3041   1.260       .  A
N3037      O3042   1.261       .  A
N3040      O3044   1.262       .  A
N3040      O3043   1.262       .  A
C3045      C3050   1.396       .  A
C3045      H3052   1.085       .  S
C3047      C3048   1.392       .  A
C3048      C3049   1.392       .  A
C3048      H3053   1.085       .  S
C3049      C3050   1.412       .  A
C3050      N3051   1.427       .  S
N3051      O3055   1.262       .  A
N3051      O3056   1.262       .  A
N3054      O3058   1.262       .  A
N3054      O3057   1.262       .  A
C3059      C3060   1.410       .  A
C3059      C3064   1.400       .  A
C3059      H3066   1.082       .  S
C3060      C3061   1.406       .  A
C3061      C3062   1.408       .  A
C3061      N3068   1.428       .  S
C3062      C3063   1.409       .  A
C3062      H3067   1.075       .  S
C3063      C3064   1.405       .  A
C3064      N3065   1.429       .  S
N3065      O3069   1.262       .  A
N3065      O3070   1.262       .  A
N3068      O3072   1.262       .  A
N3068      O3071   1.262       .  A
O3073     Cr3091   2.018       .  S
O3073      C3081   1.270       .  A
O3074     Cr3091   1.976       .  S
O3074      C3075   1.255       .  A
C3075      O3076   1.260       .  A
C3075      C4042   1.482       .  S
O3076     Cr3092   2.001       .  S
O3077     Cr3092   1.974       .  S
O3077      C3078   1.260       .  A
C3078      O3079   1.272       .  A
C3078      C4070   1.464   1_655  S
O3079     Cr3093   2.013       .  S
O3080     Cr3093   1.974       .  S
O3080      C3081   1.262       .  A
C3081      C4031   1.489       .  S
O3082     Cr3091   1.982       .  S
O3082      C3090   1.259       .  A
O3083     Cr3091   2.040       .  S
O3083      C3084   1.276       .  A
C3084      O3085   1.256       .  A
C3084      C4084   1.479       .  S
O3085     Cr3092   1.956       .  S
O3086     Cr3092   1.974       .  S
O3086      C3087   1.259       .  A
C3087      O3088   1.261       .  A
C3087      C4056   1.477       .  S
O3088     Cr3093   2.004       .  S
O3089     Cr3093   2.000       .  S
O3089      C3090   1.264       .  A
C3090      C4014   1.476       .  S
Cr3091     O3094   1.772       .  S
Cr3092     O3094   1.774       .  S
Cr3093     O3094   1.766       .  S
O3095     Cr3113   1.993       .  S
O3095      C3103   1.271       .  A
O3096     Cr3113   1.987       .  S
O3096      C3097   1.265       .  A
C3097      O3098   1.267       .  A
C3097      C4000   1.485       .  S
O3098     Cr3114   2.009       .  S
O3099     Cr3114   2.015       .  S
O3099      C3100   1.263       .  A
C3100      O3101   1.255       .  A
C3100      C3961   1.471       .  S
O3101     Cr3115   1.970       .  S
O3102     Cr3115   2.026       .  S
O3102      C3103   1.273       .  A
C3103      C4028   1.506       .  S
O3104     Cr3113   2.002       .  S
O3104      C3112   1.258       .  A
O3105     Cr3113   2.021       .  S
O3105      C3106   1.270       .  A
C3106      O3107   1.264       .  A
C3106      C3975   1.484       .  S
O3107     Cr3114   1.987       .  S
O3108     Cr3114   1.976       .  S
O3108      C3109   1.259       .  A
C3109      O3110   1.270       .  A
C3109      C3986   1.476       .  S
O3110     Cr3115   2.024       .  S
O3111     Cr3115   1.978       .  S
O3111      C3112   1.257       .  A
C3112      C3944   1.484       .  S
Cr3113     O3116   1.770       .  S
Cr3114     O3116   1.777       .  S
Cr3115     O3116   1.769       .  S
O3117     Cr3135   1.981       .  S
O3117      C3125   1.280       .  A
O3118     Cr3135   1.986       .  S
O3118      C3119   1.245       .  A
C3119      O3120   1.253       .  A
C3119      C3989   1.487       .  S
O3120     Cr3136   2.003       .  S
O3121     Cr3136   1.999       .  S
O3121      C3122   1.262       .  A
C3122      O3123   1.261       .  A
C3122      C4087   1.482       .  S
O3123     Cr3137   1.987       .  S
O3124     Cr3137   2.043       .  S
O3124      C3125   1.290       .  A
C3125      C3933   1.492       .  S
O3126     Cr3135   1.984       .  S
O3126      C3134   1.243       .  A
O3127     Cr3135   1.987       .  S
O3127      C3128   1.279       .  A
C3128      O3129   1.282       .  A
C3128      C4073   1.469       .  S
O3129     Cr3136   2.016       .  S
O3130     Cr3136   1.973       .  S
O3130      C3131   1.261       .  A
C3131      O3132   1.262       .  A
C3131      C4003   1.478       .  S
O3132     Cr3137   2.000       .  S
O3133     Cr3137   1.997       .  S
O3133      C3134   1.246       .  A
C3134      C3916   1.476       .  S
Cr3135     O3138   1.776       .  S
Cr3136     O3138   1.765       .  S
Cr3137     O3138   1.767       .  S
O3139     Cr3157   2.035       .  S
O3139      C3147   1.276       .  A
O3140     Cr3157   1.952       .  S
O3140      C3141   1.249       .  A
C3141      O3142   1.257       .  A
C3141      C4059   1.470       .  S
O3142     Cr3158   2.002       .  S
O3143     Cr3158   1.994       .  S
O3143      C3144   1.266       .  A
C3144      O3145   1.268       .  A
C3144      C3972   1.475       .  S
O3145     Cr3159   2.008       .  S
O3146     Cr3159   1.965       .  S
O3146      C3147   1.263       .  A
C3147      C3930   1.493       .  S
O3148     Cr3157   1.972       .  S
O3148      C3156   1.253       .  A
O3149     Cr3157   2.041       .  S
O3149      C3150   1.275       .  A
C3150      O3151   1.262       .  A
C3150      C3958   1.492       .  S
O3151     Cr3158   1.956       .  S
O3152     Cr3158   1.979       .  S
O3152      C3153   1.263       .  A
C3153      O3154   1.269       .  A
C3153      C4045   1.490       .  S
O3154     Cr3159   2.019       .  S
O3155     Cr3159   2.013       .  S
O3155      C3156   1.260       .  A
C3156      C3905   1.489       .  S
Cr3157     O3160   1.772       .  S
Cr3158     O3160   1.774       .  S
Cr3159     O3160   1.777       .  S
O3161     Cr3179   1.979       .  S
O3161      C3169   1.267       .  A
O3162     Cr3179   2.026       .  S
O3162      C3163   1.273       .  A
C3163      O3164   1.261   1_554  A
C3163      C3874   1.470   1_554  S
O3164     Cr3180   1.976   1_556  S
O3165     Cr3180   1.997   1_556  S
O3165      C3166   1.255   1_556  A
C3166      O3167   1.253       .  A
C3166      C3849   1.469   1_554  S
O3167     Cr3181   1.962       .  S
O3168     Cr3181   2.037       .  S
O3168      C3169   1.275       .  A
C3169      C3835   1.505       .  S
O3170     Cr3179   2.030       .  S
O3170      C3178   1.266       .  A
O3171     Cr3179   2.029       .  S
O3171      C3172   1.271       .  A
C3172      O3173   1.257       .  A
C3172      C3860   1.489       .  S
O3173     Cr3180   1.973       .  S
O3174     Cr3180   1.952       .  S
O3174      C3175   1.256       .  A
C3175      O3176   1.279       .  A
C3175      C3888   1.494       .  S
O3176     Cr3181   2.047       .  S
O3177     Cr3181   1.975       .  S
O3177      C3178   1.258       .  A
C3178      C3818   1.499       .  S
Cr3179     O3182   1.771       .  S
Cr3180     O3182   1.775       .  S
Cr3181     O3182   1.764       .  S
O3183     Cr3201   1.974       .  S
O3183      C3191   1.265       .  A
O3184     Cr3201   1.991       .  S
O3184      C3185   1.267       .  A
C3185      O3186   1.271   1_554  A
C3185      C3807   1.495   1_554  S
O3186     Cr3202   2.014   1_556  S
O3187     Cr3202   2.025   1_556  S
O3187      C3188   1.263   1_556  A
C3188      O3189   1.254       .  A
C3188      C3779   1.481   1_554  S
O3189     Cr3203   1.964       .  S
O3190     Cr3203   2.023       .  S
O3190      C3191   1.270       .  A
C3191      C3832   1.498       .  S
O3192     Cr3201   2.003       .  S
O3192      C3200   1.262       .  A
O3193     Cr3201   2.012       .  S
O3193      C3194   1.268       .  A
C3194      O3195   1.264       .  A
C3194      C3762   1.481       .  S
O3195     Cr3202   1.998       .  S
O3196     Cr3202   1.971       .  S
O3196      C3197   1.260       .  A
C3197      O3198   1.269       .  A
C3197      C3790   1.475       .  S
O3198     Cr3203   2.006       .  S
O3199     Cr3203   1.976       .  S
O3199      C3200   1.252       .  A
C3200      C3748   1.485       .  S
Cr3201     O3204   1.765       .  S
Cr3202     O3204   1.779       .  S
Cr3203     O3204   1.776       .  S
O3205     Cr3223   2.039       .  S
O3205      C3213   1.279       .  A
O3206     Cr3223   1.969       .  S
O3206      C3207   1.257       .  A
C3207      O3208   1.264       .  A
C3207      C3891   1.485   1_556  S
O3208     Cr3224   2.023       .  S
O3209     Cr3224   2.003       .  S
O3209      C3210   1.264       .  A
C3210      O3211   1.267       .  A
C3210      C3765   1.491   1_556  S
O3211     Cr3225   1.996       .  S
O3212     Cr3225   1.971       .  S
O3212      C3213   1.264       .  A
C3213      C3737   1.503       .  S
O3214     Cr3223   1.986       .  S
O3214      C3222   1.257       .  A
O3215     Cr3223   2.033       .  S
O3215      C3216   1.272       .  A
C3216      O3217   1.252       .  A
C3216      C3776   1.467       .  S
O3217     Cr3224   1.945       .  S
O3218     Cr3224   1.995       .  S
O3218      C3219   1.267       .  A
C3219      O3220   1.268       .  A
C3219      C3877   1.477       .  S
O3220     Cr3225   2.003       .  S
O3221     Cr3225   2.012       .  S
O3221      C3222   1.259       .  A
C3222      C3902   1.496       .  S
Cr3223     O3226   1.768       .  S
Cr3224     O3226   1.775       .  S
Cr3225     O3226   1.775       .  S
O3227     Cr3245   2.000       .  S
O3227      C3235   1.275       .  A
O3228     Cr3245   1.978       .  S
O3228      C3229   1.253   1_556  A
C3229      O3230   1.259       .  A
C3229      C3793   1.462       .  S
O3230     Cr3246   1.991   1_554  S
O3231     Cr3246   1.983   1_554  S
O3231      C3232   1.255   1_554  A
C3232      O3233   1.262       .  A
C3232      C3863   1.476   1_556  S
O3233     Cr3247   1.978       .  S
O3234     Cr3247   2.026       .  S
O3234      C3235   1.276       .  A
C3235      C3734   1.505       .  S
O3236     Cr3245   1.977       .  S
O3236      C3244   1.252       .  A
O3237     Cr3245   2.009       .  S
O3237      C3238   1.274       .  A
C3238      O3239   1.263       .  A
C3238      C3846   1.475       .  S
O3239     Cr3246   1.983       .  S
O3240     Cr3246   1.967       .  S
O3240      C3241   1.258       .  A
C3241      O3242   1.265       .  A
C3241      C3804   1.471       .  S
O3242     Cr3247   2.008       .  S
O3243     Cr3247   2.004       .  S
O3243      C3244   1.256       .  A
C3244      C3919   1.490       .  S
Cr3245     O3248   1.774       .  S
Cr3246     O3248   1.781       .  S
Cr3247     O3248   1.780       .  S
O3249     Cr3267   1.987       .  S
O3249      C3257   1.267       .  A
O3250     Cr3267   1.989       .  S
O3250      C3251   1.261       .  A
C3251      O3252   1.267       .  A
C3251      C3720   1.482       .  S
O3252     Cr3268   2.001       .  S
O3253     Cr3268   2.008       .  S
O3253      C3254   1.261       .  A
C3254      O3255   1.257       .  A
C3254      C3681   1.489       .  S
O3255     Cr3269   1.976       .  S
O3256     Cr3269   2.021       .  S
O3256      C3257   1.273       .  A
C3257      C3664   1.502       .  S
O3258     Cr3267   2.006       .  S
O3258      C3266   1.260       .  A
O3259     Cr3267   2.031       .  S
O3259      C3260   1.273       .  A
C3260      O3261   1.263       .  A
C3260      C3695   1.492       .  S
O3261     Cr3268   1.967       .  S
O3262     Cr3268   1.968       .  S
O3262      C3263   1.257       .  A
C3263      O3264   1.270       .  A
C3263      C3706   1.473       .  S
O3264     Cr3269   2.024       .  S
O3265     Cr3269   1.985       .  S
O3265      C3266   1.258       .  A
C3266      C4017   1.489       .  S
Cr3267     O3270   1.777       .  S
Cr3268     O3270   1.770       .  S
Cr3269     O3270   1.772       .  S
O3271     Cr3289   2.039       .  S
O3271      C3279   1.278       .  A
O3272     Cr3289   1.963       .  S
O3272      C3273   1.256       .  A
C3273      O3274   1.260       .  A
C3273      C3709   1.474       .  S
O3274     Cr3290   2.011       .  S
O3275     Cr3290   1.962       .  S
O3275      C3276   1.260       .  A
C3276      O3277   1.274       .  A
C3276      C3636   1.468       .  S
O3277     Cr3291   2.026       .  S
O3278     Cr3291   1.975       .  S
O3278      C3279   1.263       .  A
C3279      C3622   1.496       .  S
O3280     Cr3289   1.975       .  S
O3280      C3288   1.255       .  A
O3281     Cr3289   2.048       .  S
O3281      C3282   1.275       .  A
C3282      O3283   1.250       .  A
C3282      C3650   1.475       .  S
O3283     Cr3290   1.928       .  S
O3284     Cr3290   1.984       .  S
O3284      C3285   1.261       .  A
C3285      O3286   1.260       .  A
C3285      C3723   1.467       .  S
O3286     Cr3291   2.004       .  S
O3287     Cr3291   2.003       .  S
O3287      C3288   1.264       .  A
C3288      C3608   1.486       .  S
Cr3289     O3292   1.762       .  S
Cr3290     O3292   1.767       .  S
Cr3291     O3292   1.767       .  S
O3293     Cr3311   2.009       .  S
O3293      C3301   1.272       .  A
O3294     Cr3311   1.996       .  S
O3294      C3295   1.267       .  A
C3295      O3296   1.272       .  A
C3295      C3594   1.482       .  S
O3296     Cr3312   2.011       .  S
O3297     Cr3312   2.010       .  S
O3297      C3298   1.257       .  A
C3298      O3299   1.252       .  A
C3298      C3692   1.477       .  S
O3299     Cr3313   1.962       .  S
O3300     Cr3313   2.005       .  S
O3300      C3301   1.269       .  A
C3301      C3625   1.498       .  S
O3302     Cr3311   1.992       .  S
O3302      C3310   1.258       .  A
O3303     Cr3311   2.041       .  S
O3303      C3304   1.270       .  A
C3304      O3305   1.255       .  A
C3304      C3678   1.490       .  S
O3305     Cr3312   1.977       .  S
O3306     Cr3312   1.981       .  S
O3306      C3307   1.262       .  A
C3307      O3308   1.269       .  A
C3307      C3583   1.468       .  S
O3308     Cr3313   2.007       .  S
O3309     Cr3313   1.978       .  S
O3309      C3310   1.253       .  A
C3310      C3566   1.473       .  S
Cr3311     O3314   1.775       .  S
Cr3312     O3314   1.782       .  S
Cr3313     O3314   1.779       .  S
O3315     Cr3333   1.993       .  S
O3315      C3323   1.269       .  A
O3316     Cr3333   1.989       .  S
O3316      C3317   1.264       .  A
C3317      O3318   1.266       .  A
C3317      C3580   1.472       .  S
O3318     Cr3334   1.991       .  S
O3319     Cr3334   2.016       .  S
O3319      C3320   1.261       .  A
C3320      O3321   1.257       .  A
C3320      C3653   1.488       .  S
O3321     Cr3335   1.960       .  S
O3322     Cr3335   2.007       .  S
O3322      C3323   1.270       .  A
C3323      C3667   1.487       .  S
O3324     Cr3333   1.994       .  S
O3324      C3332   1.257       .  A
O3325     Cr3333   2.026       .  S
O3325      C3326   1.270       .  A
C3326      O3327   1.260       .  A
C3326      C3639   1.479       .  S
O3327     Cr3334   1.975       .  S
O3328     Cr3334   1.963       .  S
O3328      C3329   1.258       .  A
C3329      O3330   1.267       .  A
C3329      C3597   1.472       .  S
O3330     Cr3335   2.017       .  S
O3331     Cr3335   1.983       .  S
O3331      C3332   1.259       .  A
C3332      C3947   1.484       .  S
Cr3333     O3336   1.774       .  S
Cr3334     O3336   1.772       .  S
Cr3335     O3336   1.761       .  S
O3337     Cr3355   2.030       .  S
O3337      C3345   1.274       .  A
O3338     Cr3355   1.956       .  S
O3338      C3339   1.253       .  A
C3339      O3340   1.266       .  A
C3339      C3541   1.483       .  S
O3340     Cr3356   2.030       .  S
O3341     Cr3356   1.986       .  S
O3341      C3342   1.265       .  A
C3342      O3343   1.270       .  A
C3342      C3510   1.471   1_655  S
O3343     Cr3357   2.013       .  S
O3344     Cr3357   1.985       .  S
O3344      C3345   1.266       .  A
C3345      C3496   1.503       .  S
O3346     Cr3355   1.957       .  S
O3346      C3354   1.249       .  A
O3347     Cr3355   2.012       .  S
O3347      C3348   1.271       .  A
C3348      O3349   1.256       .  A
C3348      C3524   1.476       .  S
O3349     Cr3356   1.965       .  S
O3350     Cr3356   1.997       .  S
O3350      C3351   1.264       .  A
C3351      O3352   1.266       .  A
C3351      C3555   1.487       .  S
O3352     Cr3357   2.013       .  S
O3353     Cr3357   2.018       .  S
O3353      C3354   1.264       .  A
C3354      C3611   1.481       .  S
Cr3355     O3358   1.767       .  S
Cr3356     O3358   1.773       .  S
Cr3357     O3358   1.770       .  S
O3359     Cr3377   2.038       .  S
O3359      C3367   1.280       .  A
O3360     Cr3377   1.966       .  S
O3360      C3361   1.253       .  A
C3361      O3362   1.259       .  A
C3361      C3468   1.493       .  S
O3362     Cr3378   2.008       .  S
O3363     Cr3378   1.996       .  S
O3363      C3364   1.264       .  A
C3364      O3365   1.261       .  A
C3364      C3527   1.471       .  S
O3365     Cr3379   1.999       .  S
O3366     Cr3379   1.990       .  S
O3366      C3367   1.273       .  A
C3367      C3454   1.509       .  S
O3368     Cr3377   1.979       .  S
O3368      C3376   1.250       .  A
O3369     Cr3377   2.032       .  S
O3369      C3370   1.273       .  A
C3370      O3371   1.257       .  A
C3370      C3513   1.488       .  S
O3371     Cr3378   1.940       .  S
O3372     Cr3378   1.982       .  S
O3372      C3373   1.266       .  A
C3373      O3374   1.270       .  A
C3373      C3482   1.487       .  S
O3374     Cr3379   2.018       .  S
O3375     Cr3379   1.994       .  S
O3375      C3376   1.254       .  A
C3376      C3751   1.474       .  S
Cr3377     O3380   1.779       .  S
Cr3378     O3380   1.779       .  S
Cr3379     O3380   1.780       .  S
O3381     Cr3399   2.035       .  S
O3381      C3389   1.275       .  A
O3382     Cr3399   1.953       .  S
O3382      C3383   1.251       .  A
C3383      O3384   1.258       .  A
C3383      C3485   1.467       .  S
O3384     Cr3400   2.005       .  S
O3385     Cr3400   1.986       .  S
O3385      C3386   1.265       .  A
C3386      O3387   1.271       .  A
C3386      C3429   1.471       .  S
O3387     Cr3401   2.016       .  S
O3388     Cr3401   1.987       .  S
O3388      C3389   1.268       .  A
C3389      C3499   1.508       .  S
O3390     Cr3399   1.963       .  S
O3390      C3398   1.253       .  A
O3391     Cr3399   2.031       .  S
O3391      C3392   1.275       .  A
C3392      O3393   1.259       .  A
C3392      C3440   1.488       .  S
O3393     Cr3400   1.965       .  S
O3394     Cr3400   1.978       .  S
O3394      C3395   1.260       .  A
C3395      O3396   1.270       .  A
C3395      C3471   1.498       .  S
O3396     Cr3401   2.037       .  S
O3397     Cr3401   2.015       .  S
O3397      C3398   1.262       .  A
C3398      C3569   1.489       .  S
Cr3399     O3402   1.764       .  S
Cr3400     O3402   1.773       .  S
Cr3401     O3402   1.772       .  S
O3403     Cr3421   1.978       .  S
O3403      C3411   1.265       .  A
O3404     Cr3421   1.984       .  S
O3404      C3405   1.264       .  A
C3405      O3406   1.265       .  A
C3405      C3552   1.498       .  S
O3406     Cr3422   2.012       .  S
O3407     Cr3422   2.018       .  S
O3407      C3408   1.263       .  A
C3408      O3409   1.257       .  A
C3408      C3443   1.480       .  S
O3409     Cr3423   1.971       .  S
O3410     Cr3423   2.044       .  S
O3410      C3411   1.281       .  A
C3411      C3457   1.507       .  S
O3412     Cr3421   2.009       .  S
O3412      C3420   1.259       .  A
O3413     Cr3421   2.002       .  S
O3413      C3414   1.268       .  A
C3414      O3415   1.266       .  A
C3414      C3426   1.470       .  S
O3415     Cr3422   1.995       .  S
O3416     Cr3422   1.948       .  S
O3416      C3417   1.254       .  A
C3417      O3418   1.273       .  A
C3417      C3538   1.471       .  S
O3418     Cr3423   2.036       .  S
O3419     Cr3423   1.995       .  S
O3419      C3420   1.257       .  A
C3420      C3821   1.501       .  S
Cr3421     O3424   1.771       .  S
Cr3422     O3424   1.783       .  S
Cr3423     O3424   1.771       .  S
C3425      C3426   1.406       .  A
C3425      C3430   1.400       .  A
C3425      H3432   1.085       .  S
C3426      C3427   1.406       .  A
C3427      N3434   1.428       .  S
C3428      C3429   1.404       .  A
C3428      H3433   1.085       .  S
C3430      N3431   1.429       .  S
N3431      O3435   1.262       .  A
N3434      O3437   1.262       .  A
C3439      C3440   1.402       .  A
C3439      C3444   1.403       .  A
C3439      H3446   1.084       .  S
C3440      C3441   1.418       .  A
C3441      C3442   1.400       .  A
C3441      N3448   1.428       .  S
C3442      C3443   1.398       .  A
C3442      H3447   1.085       .  S
C3443      C3444   1.413       .  A
C3444      N3445   1.425       .  S
N3445      O3449   1.262       .  A
N3445      O3450   1.262       .  A
N3448      O3452   1.262       .  A
N3448      O3451   1.261       .  A
C3453      C3454   1.407       .  A
C3453      C3458   1.407       .  A
C3453      H3460   1.084       .  S
C3454      C3455   1.419       .  A
C3455      C3456   1.410       .  A
C3455      N3462   1.426       .  S
C3456      C3457   1.406       .  A
C3456      H3461   1.084       .  S
C3457      C3458   1.420       .  A
C3458      N3459   1.429       .  S
N3459      O3463   1.262       .  A
N3459      O3464   1.262       .  A
N3462      O3466   1.262       .  A
N3462      O3465   1.262       .  A
C3467      C3468   1.412       .  A
C3467      C3472   1.417       .  A
C3467      H3474   1.084       .  S
C3468      C3469   1.413       .  A
C3469      C3470   1.389       .  A
C3469      N3476   1.431       .  S
C3470      C3471   1.407       .  A
C3470      H3475   1.084       .  S
C3471      C3472   1.416       .  A
C3472      N3473   1.428       .  S
N3473      O3477   1.261       .  A
N3473      O3478   1.261       .  A
N3476      O3480   1.261       .  A
N3476      O3479   1.261       .  A
C3481      C3482   1.402       .  A
C3481      H3488   1.069       .  S
C3482      C3483   1.413       .  A
C3483      C3484   1.411   1_565  A
C3483      N3490   1.423       .  S
C3484      H3489   1.082       .  S
C3485      C3486   1.404       .  A
C3486      N3487   1.430       .  S
N3487      O3491   1.261       .  A
N3487      O3492   1.262       .  A
N3490      O3494   1.262       .  A
N3490      O3493   1.261       .  A
C3495      C3500   1.409       .  A
C3495      H3502   1.084       .  S
C3497      C3498   1.409   1_655  A
C3497      N3504   1.424       .  S
C3498      H3503   1.084   1_455  S
C3500      N3501   1.426       .  S
N3501      O3505   1.262       .  A
N3501      O3506   1.261       .  A
N3504      O3508   1.260       .  A
N3504      O3507   1.262       .  A
C3509      C3514   1.406       .  A
C3509      H3516   1.086       .  S
C3510      C3511   1.401       .  A
C3511      N3518   1.426       .  S
C3512      C3513   1.410       .  A
C3512      H3517   1.087       .  S
C3513      C3514   1.410       .  A
C3514      N3515   1.427       .  S
N3515      O3519   1.262       .  A
N3515      O3520   1.261       .  A
N3518      O3522   1.262       .  A
N3518      O3521   1.261       .  A
C3523      C3524   1.393       .  A
C3523      C3528   1.392       .  A
C3523      H3530   1.085       .  S
C3524      C3525   1.416       .  A
C3525      C3526   1.403       .  A
C3525      N3532   1.426       .  S
C3526      C3527   1.397       .  A
C3526      H3531   1.085       .  S
C3527      C3528   1.414       .  A
C3528      N3529   1.423       .  S
N3529      O3533   1.262       .  A
N3529      O3534   1.262       .  A
N3532      O3536   1.262       .  A
N3532      O3535   1.262       .  A
C3537      C3538   1.396       .  A
C3537      C3542   1.391       .  A
C3537      H3544   1.084       .  S
C3538      C3539   1.409       .  A
C3539      C3540   1.409       .  A
C3539      N3546   1.427       .  S
N3543      O3548   1.262   1_545  A
N3546      O3550   1.262       .  A
N3546      O3549   1.262       .  A
C3551      C3552   1.405       .  A
C3551      C3556   1.384       .  A
C3551      H3558   1.084       .  S
C3552      C3553   1.418       .  A
C3553      C3554   1.419       .  A
C3553      N3560   1.428       .  S
C3554      C3555   1.410       .  A
C3554      H3559   1.084       .  S
C3555      C3556   1.406       .  A
C3556      N3557   1.426       .  S
N3557      O3561   1.261       .  A
N3557      O3562   1.262       .  A
N3560      O3564   1.262       .  A
N3560      O3563   1.262       .  A
C3565      C3566   1.400       .  A
C3565      C3570   1.403       .  A
C3565      H3572   1.085       .  S
C3566      C3567   1.407       .  A
C3567      C3568   1.399       .  A
C3567      N3574   1.429       .  S
C3568      C3569   1.408       .  A
C3568      H3573   1.084       .  S
C3569      C3570   1.416       .  A
C3570      N3571   1.428       .  S
N3571      O3575   1.262       .  A
N3571      O3576   1.262       .  A
N3574      O3578   1.262       .  A
N3574      O3577   1.262       .  A
C3579      C3580   1.400       .  A
C3579      C3584   1.404       .  A
C3579      H3586   1.085       .  S
C3580      C3581   1.417       .  A
C3581      C3582   1.390       .  A
C3581      N3588   1.431       .  S
C3582      C3583   1.394       .  A
C3582      H3587   1.085       .  S
C3583      C3584   1.413       .  A
C3584      N3585   1.429       .  S
N3585      O3589   1.261       .  A
N3585      O3590   1.262       .  A
N3588      O3592   1.262       .  A
N3588      O3591   1.262       .  A
C3593      C3598   1.397       .  A
C3595      C3596   1.402       .  A
C3596      C3597   1.406       .  A
C3596      H3601   1.085       .  S
C3597      C3598   1.407       .  A
C3598      N3599   1.430       .  S
N3599      O3603   1.262       .  A
N3599      O3604   1.261       .  A
N3602      O3605   1.262       .  A
C3607      C3608   1.403       .  A
C3607      C3612   1.396       .  A
C3607      H3614   1.085       .  S
C3608      C3609   1.417       .  A
C3609      C3610   1.402       .  A
C3609      N3616   1.429       .  S
C3610      C3611   1.402       .  A
C3610      H3615   1.085       .  S
C3611      C3612   1.415       .  A
C3612      N3613   1.430       .  S
N3613      O3617   1.262       .  A
N3613      O3618   1.262       .  A
N3616      O3620   1.262       .  A
N3616      O3619   1.262       .  A
C3621      C3626   1.405       .  A
C3621      H3628   1.085       .  S
C3622      C3623   1.417       .  A
C3623      C3624   1.406       .  A
C3623      N3630   1.429       .  S
C3624      H3629   1.085       .  S
C3625      C3626   1.418       .  A
C3626      N3627   1.428       .  S
N3627      O3631   1.262       .  A
N3627      O3632   1.262       .  A
N3630      O3634   1.260       .  A
N3630      O3633   1.262       .  A
C3635      C3636   1.408       .  A
C3635      C3640   1.409       .  A
C3635      H3642   1.085       .  S
C3636      C3637   1.399       .  A
C3637      C3638   1.385       .  A
C3637      N3644   1.425       .  S
C3638      C3639   1.406       .  A
C3638      H3643   1.085       .  S
C3639      C3640   1.409       .  A
C3640      N3641   1.427       .  S
N3641      O3645   1.262       .  A
N3641      O3646   1.262       .  A
N3644      O3648   1.262       .  A
N3644      O3647   1.262       .  A
C3649      C3650   1.404       .  A
C3649      H3656   1.084       .  S
C3650      C3651   1.412       .  A
C3651      N3658   1.432       .  S
C3652      C3653   1.401       .  A
C3652      H3657   1.084       .  S
C3653      C3654   1.420       .  A
C3654      N3655   1.429       .  S
N3655      O3659   1.262       .  A
N3655      O3660   1.261       .  A
N3658      O3662   1.261       .  A
N3658      O3661   1.262       .  A
C3663      C3668   1.408       .  A
C3663      H3670   1.083       .  S
C3664      C3665   1.419       .  A
C3665      N3672   1.429       .  S
C3666      C3667   1.403       .  A
C3667      C3668   1.407       .  A
C3668      N3669   1.429       .  S
N3669      O3673   1.262       .  A
N3669      O3674   1.262       .  A
N3672      O3676   1.262       .  A
N3672      O3675   1.262       .  A
C3677      C3678   1.407       .  A
C3677      C3682   1.394       .  A
C3677      H3684   1.085       .  S
C3678      C3679   1.409       .  A
C3679      N3686   1.426       .  S
C3680      C3681   1.413       .  A
C3680      H3685   1.085       .  S
C3682      N3683   1.431       .  S
N3683      O3687   1.262       .  A
N3683      O3688   1.262       .  A
N3686      O3690   1.262       .  A
N3686      O3689   1.262       .  A
C3691      C3692   1.409       .  A
C3691      C3696   1.417       .  A
C3691      H3698   1.084       .  S
C3692      C3693   1.406       .  A
C3693      C3694   1.384       .  A
C3693      N3700   1.432       .  S
C3694      C3695   1.408       .  A
C3694      H3699   1.084       .  S
C3695      C3696   1.414       .  A
C3696      N3697   1.428       .  S
N3697      O3701   1.261       .  A
N3697      O3702   1.261       .  A
N3700      O3704   1.262       .  A
N3700      O3703   1.262       .  A
C3705      C3706   1.401       .  A
C3705      H3712   1.084       .  S
C3706      C3707   1.413       .  A
C3707      C3708   1.401       .  A
C3707      N3714   1.425       .  S
C3708      H3713   1.084       .  S
C3709      C3710   1.411       .  A
C3710      N3711   1.426       .  S
N3711      O3715   1.262       .  A
N3711      O3716   1.261       .  A
N3714      O3718   1.262       .  A
N3714      O3717   1.261       .  A
C3719      C3720   1.405       .  A
C3719      C3724   1.409       .  A
C3719      H3726   1.084       .  S
C3720      C3721   1.421       .  A
C3721      C3722   1.389       .  A
C3721      N3728   1.431       .  S
C3722      C3723   1.391       .  A
C3722      H3727   1.086       .  S
C3723      C3724   1.414       .  A
C3724      N3725   1.428       .  S
N3725      O3729   1.261       .  A
N3725      O3730   1.261       .  A
N3728      O3732   1.261       .  A
N3728      O3731   1.262       .  A
C3733      C3734   1.405       .  A
C3733      C3738   1.408       .  A
C3733      H3740   1.084       .  S
C3735      C3736   1.410   1_455  A
C3735      N3742   1.429   1_455  S
C3736      C3737   1.408       .  A
C3736      H3741   1.084       .  S
C3738      N3739   1.428       .  S
N3739      O3743   1.262       .  A
N3739      O3744   1.262       .  A
N3742      O3746   1.262       .  A
N3742      O3745   1.262       .  A
C3747      C3748   1.403       .  A
C3747      C3752   1.398       .  A
C3747      H3754   1.085       .  S
C3748      C3749   1.416       .  A
C3749      C3750   1.403       .  A
C3749      N3756   1.428       .  S
C3750      C3751   1.401       .  A
C3750      H3755   1.085       .  S
C3751      C3752   1.407       .  A
C3752      N3753   1.423       .  S
N3753      O3757   1.262       .  A
N3753      O3758   1.261       .  A
N3756      O3760   1.262       .  A
N3756      O3759   1.262       .  A
C3761      C3762   1.405       .  A
C3761      C3766   1.415       .  A
C3761      H3768   1.082       .  S
C3762      C3763   1.408       .  A
C3763      N3770   1.427       .  S
C3764      C3765   1.403   1_455  A
C3764      H3769   1.085   1_454  S
C3766      N3767   1.429       .  S
N3767      O3771   1.262       .  A
N3767      O3772   1.262       .  A
N3770      O3774   1.262       .  A
N3770      O3773   1.262   1_554  A
C3775      C3776   1.393       .  A
C3775      C3780   1.389   1_556  A
C3775      H3782   1.081   1_556  S
C3776      C3777   1.408       .  A
C3777      C3778   1.413       .  A
C3777      N3784   1.428       .  S
C3778      C3779   1.409       .  A
C3778      H3783   1.084       .  S
C3779      C3780   1.412   1_556  A
C3780      N3781   1.430       .  S
N3781      O3785   1.261       .  A
N3781      O3786   1.262       .  A
N3784      O3788   1.262       .  A
N3784      O3787   1.262       .  A
C3789      C3790   1.399       .  A
C3789      C3794   1.395       .  A
C3789      H3796   1.082       .  S
C3790      C3791   1.414       .  A
C3791      C3792   1.396       .  A
C3791      N3798   1.423       .  S
C3792      C3793   1.393       .  A
C3792      H3797   1.085       .  S
C3793      C3794   1.414       .  A
C3794      N3795   1.431       .  S
N3795      O3799   1.262   1_554  A
N3795      O3800   1.262       .  A
N3798      O3802   1.261       .  A
N3798      O3801   1.262       .  A
C3803      C3804   1.407       .  A
C3803      H3810   1.083       .  S
C3804      C3805   1.396       .  A
C3805      C3806   1.389   1_556  A
C3805      N3812   1.428   1_556  S
C3806      H3811   1.080       .  S
C3807      C3808   1.414   1_565  A
C3808      N3809   1.428   1_545  S
N3809      O3813   1.262       .  A
N3809      O3814   1.262       .  A
N3812      O3816   1.262       .  A
N3812      O3815   1.261   1_554  A
C3817      C3818   1.405       .  A
C3817      C3822   1.403       .  A
C3817      H3824   1.085       .  S
C3818      C3819   1.418       .  A
C3819      C3820   1.410       .  A
C3819      N3826   1.429       .  S
C3820      C3821   1.408       .  A
C3820      H3825   1.085       .  S
C3821      C3822   1.417       .  A
C3822      N3823   1.428       .  S
N3823      O3827   1.262       .  A
N3823      O3828   1.262       .  A
N3826      O3830   1.262       .  A
N3826      O3829   1.262       .  A
C3831      C3836   1.410       .  A
C3831      H3838   1.085       .  S
C3832      C3833   1.418       .  A
C3833      C3834   1.409       .  A
C3833      N3840   1.427       .  S
C3834      H3839   1.084       .  S
C3835      C3836   1.417       .  A
C3836      N3837   1.428       .  S
N3837      O3841   1.261       .  A
N3837      O3842   1.262       .  A
N3840      O3844   1.262       .  A
N3840      O3843   1.262       .  A
C3845      C3846   1.405       .  A
C3845      C3850   1.407       .  A
C3845      H3852   1.080       .  S
C3846      C3847   1.419       .  A
C3847      C3848   1.389       .  A
C3847      N3854   1.430   1_556  S
C3848      C3849   1.392       .  A
C3848      H3853   1.081   1_556  S
C3849      C3850   1.411       .  A
C3850      N3851   1.429       .  S
N3851      O3855   1.261       .  A
N3851      O3856   1.262       .  A
N3854      O3858   1.262       .  A
N3854      O3857   1.260   1_554  A
C3859      C3860   1.408       .  A
C3859      H3866   1.084       .  S
C3860      C3861   1.416   1_554  A
C3861      C3862   1.384       .  A
C3861      N3868   1.429       .  S
C3863      C3864   1.417       .  A
C3864      N3865   1.428       .  S
N3865      O3869   1.262       .  A
N3865      O3870   1.262       .  A
N3868      O3872   1.262       .  A
N3868      O3871   1.262       .  A
C3873      C3874   1.402       .  A
C3873      H3880   1.079       .  S
C3875      C3876   1.396       .  A
C3875      N3882   1.431   1_556  S
C3876      C3877   1.408       .  A
C3876      H3881   1.083       .  S
C3877      C3878   1.410       .  A
C3878      N3879   1.428       .  S
N3879      O3884   1.262       .  A
N3882      O3886   1.262       .  A
C3887      C3888   1.403       .  A
C3887      C3892   1.406       .  A
C3887      H3894   1.085       .  S
C3888      C3889   1.421       .  A
C3889      C3890   1.397       .  A
C3889      N3896   1.428       .  S
C3890      C3891   1.397       .  A
C3890      H3895   1.086   1_554  S
C3891      C3892   1.415       .  A
C3892      N3893   1.425       .  S
N3893      O3897   1.262       .  A
N3893      O3898   1.262       .  A
N3896      O3900   1.261       .  A
N3896      O3899   1.262   1_554  A
C3901      C3902   1.407       .  A
C3901      C3906   1.403       .  A
C3901      H3908   1.084       .  S
C3902      C3903   1.417       .  A
C3903      C3904   1.403       .  A
C3903      N3910   1.428       .  S
C3904      C3905   1.404       .  A
C3904      H3909   1.085       .  S
C3905      C3906   1.413       .  A
C3906      N3907   1.429       .  S
N3907      O3911   1.262       .  A
N3907      O3912   1.262       .  A
N3910      O3914   1.262       .  A
N3910      O3913   1.262       .  A
C3915      C3916   1.403       .  A
C3915      C3920   1.407       .  A
C3915      H3922   1.085       .  S
C3916      C3917   1.409       .  A
C3917      C3918   1.395       .  A
C3917      N3924   1.430       .  S
C3918      C3919   1.407       .  A
C3918      H3923   1.085       .  S
C3919      C3920   1.415       .  A
C3920      N3921   1.427       .  S
N3921      O3925   1.262       .  A
N3921      O3926   1.262       .  A
N3924      O3928   1.262       .  A
N3924      O3927   1.262       .  A
C3929      C3930   1.406       .  A
C3929      C3934   1.402       .  A
C3929      H3936   1.084       .  S
C3930      C3931   1.414       .  A
C3931      C3932   1.407       .  A
C3931      N3938   1.427       .  S
C3932      C3933   1.407       .  A
C3932      H3937   1.085       .  S
C3933      C3934   1.413       .  A
C3934      N3935   1.429       .  S
N3935      O3939   1.262       .  A
N3935      O3940   1.262       .  A
N3938      O3942   1.262       .  A
N3938      O3941   1.262       .  A
C3943      C3944   1.402       .  A
C3943      C3948   1.398       .  A
C3943      H3950   1.084       .  S
C3944      C3945   1.416       .  A
C3945      C3946   1.401       .  A
C3945      N3952   1.428       .  S
C3946      C3947   1.402       .  A
C3946      H3951   1.084       .  S
C3947      C3948   1.417       .  A
C3948      N3949   1.429       .  S
N3949      O3953   1.262       .  A
N3949      O3954   1.262       .  A
N3952      O3956   1.262       .  A
N3952      O3955   1.262       .  A
C3957      C3958   1.408       .  A
C3957      C3962   1.396       .  A
C3957      H3964   1.085       .  S
C3958      C3959   1.415       .  A
C3959      N3966   1.426       .  S
C3960      C3961   1.401       .  A
C3960      H3965   1.086       .  S
C3962      N3963   1.429       .  S
N3963      O3967   1.261       .  A
N3966      O3970   1.262       .  A
N3966      O3969   1.262       .  A
C3971      C3972   1.408       .  A
C3971      C3976   1.412       .  A
C3971      H3978   1.085       .  S
C3972      C3973   1.405       .  A
C3973      C3974   1.391       .  A
C3973      N3980   1.428       .  S
C3974      C3975   1.404       .  A
C3974      H3979   1.085       .  S
C3975      C3976   1.412       .  A
C3976      N3977   1.427       .  S
N3977      O3981   1.262       .  A
N3977      O3982   1.262       .  A
N3980      O3984   1.262       .  A
N3980      O3983   1.262       .  A
C3985      C3986   1.397       .  A
C3985      C3990   1.401       .  A
C3985      H3992   1.085       .  S
C3986      C3987   1.413       .  A
C3987      C3988   1.403       .  A
C3987      N3994   1.429       .  S
C3988      C3989   1.402       .  A
C3988      H3993   1.084       .  S
C3989      C3990   1.420       .  A
C3990      N3991   1.429       .  S
N3991      O3995   1.262       .  A
N3991      O3996   1.261       .  A
N3994      O3998   1.262       .  A
N3994      O3997   1.261       .  A
C3999      C4004   1.379       .  A
C3999      H4006   1.084       .  S
C4000      C4001   1.417       .  A
C4001      N4008   1.427       .  S
C4002      C4003   1.410       .  A
C4002      H4007   1.084       .  S
C4003      C4004   1.404       .  A
C4004      N4005   1.430       .  S
N4005      O4009   1.261       .  A
N4005      O4010   1.262       .  A
N4008      O4012   1.262       .  A
N4008      O4011   1.262       .  A
C4013      C4014   1.399       .  A
C4013      C4018   1.401       .  A
C4013      H4020   1.085       .  S
C4014      C4015   1.410       .  A
C4015      C4016   1.403       .  A
C4015      N4022   1.428       .  S
C4016      C4017   1.406       .  A
C4016      H4021   1.084       .  S
C4017      C4018   1.418       .  A
C4018      N4019   1.429       .  S
N4019      O4023   1.262       .  A
N4019      O4024   1.262       .  A
N4022      O4026   1.262       .  A
N4022      O4025   1.262       .  A
C4027      C4032   1.396       .  A
C4027      H4034   1.084       .  S
C4029      C4030   1.409   1_465  A
C4029      N4036   1.429   1_455  S
C4030      H4035   1.084   1_545  S
C4032      N4033   1.429       .  S
N4033      O4037   1.262       .  A
N4033      O4038   1.262       .  A
N4036      O4040   1.262       .  A
N4036      O4039   1.262       .  A
C4041      C4046   1.411       .  A
C4043      C4044   1.388       .  A
C4044      C4045   1.406       .  A
C4044      H4049   1.085       .  S
C4045      C4046   1.414       .  A
C4046      N4047   1.427       .  S
N4047      O4051   1.262       .  A
N4047      O4052   1.262       .  A
N4050      O4054   1.262       .  A
N4050      O4053   1.261       .  A
C4055      C4056   1.401       .  A
C4055      C4060   1.384       .  A
C4055      H4062   1.083       .  S
C4056      C4057   1.411       .  A
C4057      C4058   1.408       .  A
C4057      N4064   1.427       .  S
C4058      C4059   1.406       .  A
C4058      H4063   1.084       .  S
C4059      C4060   1.409       .  A
C4060      N4061   1.432       .  S
N4061      O4065   1.262       .  A
N4061      O4066   1.261       .  A
N4064      O4068   1.262       .  A
N4064      O4067   1.262       .  A
C4069      C4074   1.397       .  A
C4069      H4076   1.085       .  S
C4071      C4072   1.399       .  A
C4072      C4073   1.396       .  A
C4072      H4077   1.085       .  S
C4073      C4074   1.411       .  A
C4074      N4075   1.422       .  S
N4075      O4079   1.261       .  A
N4075      O4080   1.262       .  A
N4078      O4082   1.261       .  A
N4078      O4081   1.262       .  A
C4083      C4084   1.409       .  A
C4083      C4088   1.407       .  A
C4083      H4090   1.083       .  S
C4084      C4085   1.404       .  A
C4085      C4086   1.400       .  A
C4085      N4092   1.428       .  S
C4086      C4087   1.406       .  A
C4086      H4091   1.081       .  S
C4087      C4088   1.409       .  A
C4088      N4089   1.428       .  S
N4089      O4093   1.262       .  A
N4089      O4094   1.262       .  A
N4092      O4096   1.262       .  A
N4092      O4095   1.260       .  A
