geometry optimzed in LAMMPS
_audit_creation_date              2020-11-30 
_audit_creation_method            'lammps2cif' 
_symmetry_space_group_name_H-M    'P1' 
_symmetry_Int_Tables_number       1 
_symmetry_cell_setting            triclinic 
loop_ 
_symmetry_equiv_pos_as_xyz 
  x,y,z 
_cell_length_a                    46.519875030514484 
_cell_length_b                    46.50107515846199 
_cell_length_c                    40.05945151517288 
_cell_angle_alpha                 89.99339514654635 
_cell_angle_beta                  90.00556302249463 
_cell_angle_gamma                 90.00414422444108 
loop_ 
_atom_site_label 
_atom_site_type_symbol 
_atom_site_fract_x 
_atom_site_fract_y 
_atom_site_fract_z 
_atom_site_charge 
O1          O  0.03796249  0.14075938  0.41426414    -0.78890
O2          O  0.16485800  0.19672294  0.41371073    -0.63580
O3          O  0.08352461  0.17994626  0.40942050    -1.10180
C4          C  0.11661672  0.14751151  0.30399763     1.08000
O5          O  0.15682877  0.22283043  0.36899117    -0.76790
O6          O  0.11632799  0.21693754  0.31978401    -0.64370
Ni7        Ni  0.06864967  0.15369599  0.44260321     1.34870
C8          C  0.08923546  0.21481049  0.32074462     0.86740
O9          O  0.12214420  0.19972331  0.45954976    -0.77320
O10         O  0.09616709  0.16281871  0.47750699    -0.87600
C11         C  0.17392457  0.21406621  0.39140202     0.86310
O12         O  0.09241768  0.12421174  0.42498907    -0.65800
O13         O  0.13748956  0.16516505  0.30606629    -0.85090
C14         C  0.11953914  0.12494931  0.42202272     0.87140
C15         C  0.11292789  0.18383264  0.48299858     1.08710
H16         H  0.13647788  0.15578840  0.36980516     0.40510
O17         O  0.12609491  0.17374911  0.36969697    -1.07750
O18         O  0.07566781  0.19818081  0.34086773    -0.64400
Ni19       Ni  0.08738624  0.16345360  0.36487570     1.26350
O20         O  0.13426474  0.14789327  0.42682837    -0.64630
O21         O  0.09484802  0.14610483  0.32317159    -0.76920
C22         C  0.03209898  0.13967610  0.38335966     0.86520
O23         O  0.04819103  0.15047474  0.36097382    -0.64100
Ni24       Ni  0.14660434  0.19433517  0.33732315     1.27450
Ni25       Ni  0.12437016  0.18740663  0.41394752     1.26060
H26         H  0.07270197  0.19768912  0.40895365     0.41070
O27         O  0.08448233  0.00980273  0.17325137    -0.78890
O28         O  0.19311807  0.08224263  0.18137035    -0.63580
O29         O  0.11522658  0.05888682  0.17269458    -1.10180
C30         C  0.12832901  0.04897765  0.05933770     1.08000
O31         O  0.20331534  0.09200875  0.12808576    -0.76790
O32         O  0.14885365  0.10854332  0.11741396    -0.64370
Ni33       Ni  0.09478438  0.03817691  0.20503154     1.34870
C34         C  0.12173501  0.10779973  0.12041214     0.86740
O35         O  0.14648763  0.08649152  0.21922952    -0.77320
O36         O  0.10397352  0.06721271  0.23643296    -0.87600
C37         C  0.20918802  0.09308089  0.15898766     0.86310
O38         O  0.12508669  0.01549460  0.22235689    -0.65800
O39         O  0.14509870  0.06998050  0.06484649    -0.85090
C40         C  0.15217013  0.01775849  0.22150625     0.87140
C41         C  0.12479832  0.08492249  0.23850594     1.08710
H42         H  0.16859751  0.03503832  0.13333772     0.40510
O43         O  0.15777237  0.05278053  0.13291003    -1.07750
O44         O  0.10701011  0.08485387  0.11562275    -0.64400
Ni45       Ni  0.11692023  0.04532070  0.12840139     1.26350
O46         O  0.16571446  0.03448887  0.20147154    -0.64630
O47         O  0.11911196  0.03307316  0.08277176    -0.76920
C48         C  0.06736003  0.01865639  0.15091765     0.86520
O49         O  0.07642596  0.03602801  0.12864201    -0.64100
Ni50       Ni  0.17262229  0.07907766  0.09975347     1.27450
Ni51       Ni  0.15393336  0.06921408  0.17748992     1.26060
H52         H  0.10482134  0.07683563  0.17265118     0.41070
O53         O  0.13922281  0.02754591  0.42327908    -0.78890
O54         O  0.21150295  0.41889678  0.43150702    -0.63580
O55         O  0.18828193  0.49682908  0.42269890    -1.10180
C56         C  0.17834294  0.48361224  0.30935602     1.08000
O57         O  0.22135791  0.40869323  0.37824799    -0.76790
O58         O  0.23788104  0.46315100  0.36746485    -0.64370
Ni59       Ni  0.16765862  0.01735700  0.45501911     1.34870
C60         C  0.23714528  0.49028336  0.37041866     0.86740
O61         O  0.21581149  0.46557170  0.46931486    -0.77320
O62         O  0.19677807  0.50825738  0.48634538    -0.87600
C63         C  0.22238165  0.40282720  0.40915377     0.86310
O64         O  0.14505088  0.48708699  0.47255157    -0.65800
O65         O  0.19932417  0.46682888  0.31489516    -0.85090
C66         C  0.14717424  0.45998432  0.47162166     0.87140
C67         C  0.21439089  0.48735423  0.48847912     1.08710
H68         H  0.16439790  0.44341494  0.38339447     0.40510
O69         O  0.18213963  0.45424030  0.38297010    -1.07750
O70         O  0.21421034  0.00501156  0.36561386    -0.64400
Ni71       Ni  0.17469570  0.49510364  0.37841102     1.26350
O72         O  0.16378909  0.44639658  0.45150540    -0.64630
O73         O  0.16245241  0.49287487  0.33277401    -0.76920
C74         C  0.14801991  0.04466696  0.40091012     0.86520
O75         O  0.16538210  0.03560918  0.37862693    -0.64100
Ni76       Ni  0.20842505  0.43934642  0.34985100     1.27450
Ni77       Ni  0.19854496  0.45810541  0.42756334     1.26060
H78         H  0.20624266  0.50720653  0.42262612     0.41070
O79         O  0.26999759  0.07421666  0.66416642    -0.78890
O80         O  0.32595541  0.44728538  0.66384349    -0.63580
O81         O  0.30918925  0.02865061  0.65947745    -1.10180
C82         C  0.27697148  0.99550031  0.55396955     1.08000
O83         O  0.35213667  0.45536163  0.61921041    -0.76790
O84         O  0.34629766  0.99579502  0.56990252    -0.64370
Ni85       Ni  0.28289388  0.04355319  0.69257712     1.34870
C86         C  0.34417713  0.02289792  0.57083774     0.86740
O87         O  0.32884539  0.49002058  0.70969560    -0.77320
O88         O  0.29195886  0.01606142  0.72753962    -0.87600
C89         C  0.34334120  0.43823789  0.64157806     0.86310
O90         O  0.25344379  0.01975456  0.67494105    -0.65800
O91         O  0.29458969  0.47459738  0.55611983    -0.85090
C92         C  0.25417507  0.49262006  0.67200701     0.87140
C93         C  0.31292796  0.99926612  0.73309598     1.08710
H94         H  0.28510770  0.47567564  0.61982070     0.40510
O95         O  0.30306715  0.48605535  0.61975625    -1.07750
O96         O  0.32756622  0.03648391  0.59095805    -0.64400
Ni97       Ni  0.29280130  0.02477625  0.61487611     1.26350
O98         O  0.27710686  0.47788694  0.67682258    -0.64630
O99         O  0.27555358  0.01729673  0.57311463    -0.76920
C100        C  0.26898622  0.08007531  0.63325697     0.86520
O101        O  0.27984821  0.06398513  0.61091280    -0.64100
Ni102      Ni  0.32370187  0.46552182  0.58745639     1.27450
Ni103      Ni  0.31663123  0.48778906  0.66405035     1.26060
H104        H  0.32693159  0.03947507  0.65905912     0.41070
O105        O  0.47120964  0.40867005  0.16427436    -0.78890
O106        O  0.41529937  0.03562998  0.16376617    -0.63580
O107        O  0.43201875  0.45424682  0.15949373    -1.10180
C108        C  0.46414402  0.48727408  0.05390757     1.08000
O109        O  0.38906471  0.02756272  0.11917256    -0.76790
O110        O  0.39478307  0.48700119  0.07000609    -0.64370
Ni111      Ni  0.45830554  0.43936132  0.19262894     1.34870
C112        C  0.39698134  0.45990268  0.07090088     0.86740
O113        O  0.41236903  0.49292300  0.20964708    -0.77320
O114        O  0.44923768  0.46688072  0.22754989    -0.87600
C115        C  0.39790424  0.04468829  0.14151267     0.86310
O116        O  0.48776838  0.46313469  0.17497564    -0.65800
O117        O  0.44648582  0.50813955  0.05601076    -0.85090
C118        C  0.48704883  0.49026543  0.17198474     0.87140
C119        C  0.42826548  0.48367752  0.23307042     1.08710
H120        H  0.45608148  0.00720771  0.11974861     0.40510
O121        O  0.43813133  0.49681427  0.11971203    -1.07750
O122        O  0.41366756  0.44633697  0.09096401    -0.64400
Ni123      Ni  0.44841456  0.45808715  0.11489788     1.26350
O124        O  0.46412228  0.00501327  0.17676180    -0.64630
O125        O  0.46565631  0.46553778  0.07313808    -0.76920
C126        C  0.47225417  0.40279849  0.13337198     0.86520
O127        O  0.46140284  0.41887747  0.11099972    -0.64100
Ni128      Ni  0.41743953  0.01729677  0.08739437     1.27450
Ni129      Ni  0.42458908  0.49511780  0.16400968     1.26060
H130        H  0.41427309  0.44342746  0.15907996     0.41070
O131        O  0.10192783  0.45516529  0.92338302    -0.78890
O132        O  0.02969150  0.06388314  0.93144060    -0.63580
O133        O  0.05287158  0.48592475  0.92271269    -1.10180
C134        C  0.06292463  0.99911517  0.80939412     1.08000
O135        O  0.01985138  0.07406443  0.87816708    -0.76790
O136        O  0.00332465  0.01960389  0.86740370    -0.64370
Ni137      Ni  0.07345983  0.46539139  0.95506653     1.34870
C138        C  0.00405080  0.49247345  0.87038540     0.86740
O139        O  0.02533419  0.01721869  0.96927716    -0.77320
O140        O  0.04432359  0.47451537  0.98633999    -0.87600
C141        C  0.01882654  0.07995057  0.90906741     0.86310
O142        O  0.09606794  0.99566275  0.97260768    -0.65800
O143        O  0.04193055  0.01589418  0.81488399    -0.85090
C144        C  0.09398342  0.02276829  0.97162413     0.87140
C145        C  0.02671538  0.99542790  0.98843770     1.08710
H146        H  0.07680244  0.03932278  0.88339998     0.40510
O147        O  0.05905742  0.02850317  0.88296551    -1.07750
O148        O  0.02698306  0.47773605  0.86560174    -0.64400
Ni149      Ni  0.06649261  0.48763647  0.87844958     1.26350
O150        O  0.07738286  0.03635476  0.95148531    -0.64630
O151        O  0.07878529  0.48985678  0.83284259    -0.76920
C152        C  0.09315601  0.43806337  0.90098156     0.86520
O153        O  0.07579543  0.44712917  0.87869493    -0.64100
Ni154      Ni  0.03279939  0.04339390  0.84980587     1.27450
Ni155      Ni  0.04262570  0.02466063  0.92753844     1.26060
H156        H  0.03490620  0.47555542  0.92262447     0.41070
O157        O  0.45340527  0.09205010  0.41426967    -0.78890
O158        O  0.32648322  0.03613448  0.41377295    -0.63580
O159        O  0.40782452  0.05288691  0.40946049    -1.10180
C160        C  0.37470673  0.08524893  0.30399931     1.08000
O161        O  0.33452718  0.00998114  0.36910595    -0.76790
O162        O  0.37501421  0.01581860  0.31989261    -0.64370
Ni163      Ni  0.42271711  0.07914654  0.44261890     1.34870
C164        C  0.40210462  0.01797609  0.32081651     0.86740
O165        O  0.36920396  0.03315942  0.45962523    -0.77320
O166        O  0.39520456  0.07006210  0.47753425    -0.87600
C167        C  0.31741902  0.01877664  0.39147976     0.86310
O168        O  0.39895753  0.10863321  0.42497994    -0.65800
O169        O  0.35385195  0.06757510  0.30608169    -0.85090
C170        C  0.37183413  0.10790812  0.42202012     0.87140
C171        C  0.37843518  0.04906144  0.48305445     1.08710
H172        H  0.35486105  0.07702073  0.36981647     0.40510
O173        O  0.36524813  0.05906213  0.36973226    -1.07750
O174        O  0.41567633  0.03463206  0.34090595    -0.64400
Ni175      Ni  0.40395333  0.06936175  0.36489875     1.26350
O176        O  0.35709830  0.08496991  0.42682981    -0.64630
O177        O  0.39647279  0.08669263  0.32318029    -0.76920
C178        C  0.45925425  0.09313609  0.38336355     0.86520
O179        O  0.44314623  0.08234983  0.36098366    -0.64100
Ni180      Ni  0.34474168  0.03843920  0.33738821     1.27450
Ni181      Ni  0.36697651  0.04544068  0.41400266     1.26060
H182        H  0.41864150  0.03514041  0.40900647     0.41070
O183        O  0.40669420  0.22298822  0.17325810    -0.78890
O184        O  0.29806072  0.15054282  0.18140170    -0.63580
O185        O  0.37595068  0.17390651  0.17271598    -1.10180
C186        C  0.36283012  0.18380626  0.05935934     1.08000
O187        O  0.28782800  0.14083695  0.12811091    -0.76790
O188        O  0.34228280  0.12426306  0.11746349    -0.64370
Ni189      Ni  0.39640463  0.19461071  0.20504367     1.34870
C190        C  0.36940342  0.12499298  0.12045516     0.86740
O191        O  0.34471032  0.14628273  0.21925321    -0.77320
O192        O  0.38722666  0.16556881  0.23644685    -0.87600
C193        C  0.28197058  0.13973963  0.15901347     0.86310
O194        O  0.36611035  0.21729190  0.22237009    -0.65800
O195        O  0.34605935  0.16280814  0.06488212    -0.85090
C196        C  0.33902700  0.21502980  0.22152849     0.87140
C197        C  0.36641139  0.14784748  0.23851857     1.08710
H198        H  0.32257552  0.19776998  0.13337053     0.40510
O199        O  0.33339569  0.18002490  0.13293889    -1.07750
O200        O  0.38413901  0.14793235  0.11565700    -0.64400
Ni201      Ni  0.37424865  0.18747306  0.12842065     1.26350
O202        O  0.32547281  0.19829494  0.20150880    -0.64630
O203        O  0.37205037  0.19971747  0.08278395    -0.76920
C204        C  0.42381374  0.21413590  0.15092740     0.86520
O205        O  0.41474585  0.19676031  0.12865815    -0.64100
Ni206      Ni  0.31853012  0.15373949  0.09978480     1.27450
Ni207      Ni  0.33724606  0.16357667  0.17751772     1.26060
H208        H  0.38635619  0.15595796  0.17267481     0.41070
O209        O  0.33453374  0.26000677  0.67323477    -0.78890
O210        O  0.44312754  0.33242677  0.68148400    -0.63580
O211        O  0.36524833  0.30908778  0.67268623    -1.10180
C212        C  0.37848678  0.29915678  0.55936126     1.08000
O213        O  0.45342538  0.34210295  0.62820193    -0.76790
O214        O  0.39898285  0.35870044  0.61749349    -0.64370
Ni215      Ni  0.34475667  0.28841412  0.70500319     1.34870
C216        C  0.37185969  0.35796962  0.62044869     0.86740
O217        O  0.39644315  0.33672052  0.71925589    -0.77320
O218        O  0.35387673  0.31749700  0.73637132    -0.87600
C219        C  0.45925042  0.34320215  0.65911307     0.86310
O220        O  0.37503377  0.26576148  0.72243668    -0.65800
O221        O  0.39523370  0.32016887  0.56490651    -0.85090
C222        C  0.40212046  0.26797429  0.72157653     0.87140
C223        C  0.37470184  0.33520546  0.73846151     1.08710
H224        H  0.41866165  0.28520324  0.63344081     0.40510
O225        O  0.40784176  0.30294794  0.63298113    -1.07750
O226        O  0.35712599  0.33503709  0.61560037    -0.64400
Ni227      Ni  0.36699629  0.29549961  0.62840542     1.26350
O228        O  0.41569011  0.28468749  0.70154819    -0.64630
O229        O  0.36924569  0.28324429  0.58277754    -0.76920
C230        C  0.31742560  0.26883683  0.65087448     0.86520
O231        O  0.32650031  0.28620323  0.62859473    -0.64100
Ni232      Ni  0.42274032  0.32922456  0.59983862     1.27450
Ni233      Ni  0.40394658  0.31940986  0.67754215     1.26060
H234        H  0.35484587  0.32703778  0.67261292     0.41070
O235        O  0.28780681  0.39072887  0.91428108    -0.78890
O236        O  0.41469106  0.44672271  0.91382125    -0.63580
O237        O  0.33334694  0.42995775  0.90950716    -1.10180
C238        C  0.36640017  0.39777813  0.80395810     1.08000
O239        O  0.40663066  0.47293372  0.86920144    -0.76790
O240        O  0.36609383  0.46720402  0.82003333    -0.64370
Ni241      Ni  0.31848305  0.40364822  0.94264043     1.34870
C242        C  0.33900784  0.46498583  0.82090428     0.86740
O243        O  0.37198303  0.44964979  0.95968512    -0.77320
O244        O  0.34598794  0.41273224  0.97756917    -0.87600
C245        C  0.42375531  0.46408937  0.89153681     0.86310
O246        O  0.34226199  0.37419129  0.92497841    -0.65800
O247        O  0.38723385  0.41547634  0.80604724    -0.85090
C248        C  0.36938228  0.37493873  0.92200033     0.87140
C249        C  0.36275189  0.43373418  0.98310432     1.08710
H250        H  0.38630851  0.40590109  0.86980343     0.40510
O251        O  0.37590955  0.42385317  0.86975136    -1.07750
O252        O  0.32544807  0.44827495  0.84094762    -0.64400
Ni253      Ni  0.33720658  0.41353563  0.86492186     1.26350
O254        O  0.38410268  0.39788284  0.92682104    -0.64630
O255        O  0.34467390  0.39625518  0.82318441    -0.76920
C256        C  0.28194747  0.38967194  0.88337566     0.86520
O257        O  0.29802401  0.40052024  0.86100761    -0.64100
Ni258      Ni  0.39638048  0.44454158  0.83742672     1.27450
Ni259      Ni  0.37419655  0.43741783  0.91404610     1.26060
H260        H  0.32252064  0.44769928  0.90907991     0.41070
O261        O  0.35219876  0.20534015  0.42327628    -0.78890
O262        O  0.27995038  0.31402377  0.43149254    -0.63580
O263        O  0.30314573  0.23608143  0.42273824    -1.10180
C264        C  0.31294603  0.24923065  0.30936310     1.08000
O265        O  0.27001382  0.32419281  0.37824206    -0.76790
O266        O  0.25347779  0.26973192  0.36750877    -0.64370
Ni267      Ni  0.32381527  0.21557791  0.45505270     1.34870
C268        C  0.25420938  0.24259990  0.37047519     0.86740
O269        O  0.27568977  0.26738172  0.46935940    -0.77320
O270        O  0.29476128  0.22472085  0.48642900    -0.87600
C271        C  0.26903573  0.33007806  0.40914291     0.86310
O272        O  0.34646717  0.24586308  0.47248933    -0.65800
O273        O  0.29198517  0.26603511  0.31490904    -0.85090
C274        C  0.34431720  0.27296426  0.47155137     0.87140
C275        C  0.27715009  0.24562434  0.48856225     1.08710
H276        H  0.32698719  0.28946464  0.38333638     0.40510
O277        O  0.30924180  0.27864390  0.38294995    -1.07750
O278        O  0.27714183  0.22786465  0.36569233    -0.64400
Ni279      Ni  0.31667217  0.23777541  0.37842656     1.26350
O280        O  0.32767784  0.28653567  0.45144296    -0.64630
O281        O  0.32885708  0.23997041  0.33276958    -0.76920
C282        C  0.34336288  0.18821241  0.40093616     0.86520
O283        O  0.32597371  0.19726726  0.37867365    -0.64100
Ni284      Ni  0.28292084  0.29352924  0.34985398     1.27450
Ni285      Ni  0.29289495  0.27481158  0.42757100     1.26060
H286        H  0.28518323  0.22570632  0.42270557     0.41070
O287        O  0.22141482  0.15875095  0.66412161    -0.78890
O288        O  0.16536586  0.28563423  0.66374242    -0.63580
O289        O  0.18218307  0.20428229  0.65939758    -1.10180
C290        C  0.21450752  0.23748230  0.55396001     1.08000
O291        O  0.13925024  0.27758081  0.61904426    -0.76790
O292        O  0.14517274  0.23716843  0.56973277    -0.64370
Ni293      Ni  0.20847543  0.18939502  0.69251883     1.34870
C294        C  0.14724886  0.21006255  0.57072095     0.86740
O295        O  0.16245653  0.24287686  0.70958523    -0.77320
O296        O  0.19935811  0.21686685  0.72747047    -0.87600
C297        C  0.14800845  0.29469024  0.64144528     0.86310
O298        O  0.23791473  0.21322108  0.67490588    -0.65800
O299        O  0.19690805  0.25839626  0.55608912    -0.85090
C300        C  0.23716231  0.24035494  0.67196668     0.87140
C301        C  0.17835340  0.23361981  0.73300689     1.08710
H302        H  0.20628334  0.25726690  0.61978193     0.40510
O303        O  0.18832297  0.24688968  0.61968691    -1.07750
O304        O  0.16382864  0.19647382  0.59088041    -0.64400
Ni305      Ni  0.19859065  0.20816953  0.61481416     1.26350
O306        O  0.21421965  0.25506622  0.67679084    -0.64630
O307        O  0.21586443  0.21565670  0.57307132    -0.76920
C308        C  0.22242194  0.15288290  0.63321697     0.86520
O309        O  0.21154276  0.16895923  0.61086293    -0.64100
Ni310      Ni  0.16773741  0.26744267  0.58735235     1.27450
Ni311      Ni  0.17471439  0.24513739  0.66395914     1.26060
H312        H  0.16444820  0.19344585  0.65896632     0.41070
O313        O  0.15679465  0.47287504  0.67341441    -0.78890
O314        O  0.04816024  0.40056848  0.68146740    -0.63580
O315        O  0.12606445  0.42380346  0.67272557    -1.10180
C316        C  0.11289119  0.43384221  0.55940594     1.08000
O317        O  0.03792284  0.39082308  0.62818817    -0.76790
O318        O  0.09236868  0.37425850  0.61745393    -0.64370
Ni319      Ni  0.14658480  0.44438203  0.70509461     1.34870
C320        C  0.11949172  0.37498567  0.62041199     0.86740
O321        O  0.09481357  0.39618767  0.71927166    -0.77320
O322        O  0.13748085  0.41520529  0.73635581    -0.87600
C323        C  0.03206608  0.38975745  0.65909401     0.86310
O324        O  0.11631612  0.46698195  0.72264840    -0.65800
O325        O  0.09610885  0.41284911  0.56491639    -0.85090
C326        C  0.08922236  0.46487311  0.72166956     0.87140
C327        C  0.11659504  0.39756718  0.73843316     1.08710
H328        H  0.07267945  0.44774883  0.63344474     0.40510
O329        O  0.08349531  0.43000151  0.63299227    -1.07750
O330        O  0.13422549  0.39792618  0.61561264    -0.64400
Ni331      Ni  0.12434290  0.43744722  0.62846213     1.26350
O332        O  0.07565153  0.44826605  0.70152709    -0.64630
O333        O  0.12212332  0.44973914  0.58284114    -0.76920
C334        C  0.17389576  0.46410471  0.65101778     0.86520
O335        O  0.16483237  0.44676023  0.62870929    -0.64100
Ni336      Ni  0.06860180  0.40374570  0.59983235     1.27450
Ni337      Ni  0.08735564  0.41352579  0.67755260     1.26060
H338        H  0.13643818  0.40583748  0.67262816     0.41070
O339        O  0.20331676  0.34195789  0.91424374    -0.78890
O340        O  0.07642905  0.28598662  0.91371664    -0.63580
O341        O  0.15777075  0.30274261  0.90944974    -1.10180
C342        C  0.12477269  0.33489775  0.80384866     1.08000
O343        O  0.08449009  0.25976628  0.86910957    -0.76790
O344        O  0.12506201  0.26548310  0.81996997    -0.64370
Ni345      Ni  0.17262814  0.32904991  0.94258286     1.34870
C346        C  0.15214725  0.26772064  0.82084854     0.86740
O347        O  0.11911535  0.28306347  0.95961095    -0.77320
O348        O  0.14510955  0.31998046  0.97749213    -0.87600
C349        C  0.06736737  0.26861412  0.89144070     0.86310
O350        O  0.14885929  0.35851038  0.92489981    -0.65800
O351        O  0.10393289  0.31720576  0.80593226    -0.85090
C352        C  0.12173814  0.35776991  0.92192237     0.87140
C353        C  0.12833813  0.29898576  0.98302647     1.08710
H354        H  0.10482554  0.32679855  0.86969713     0.40510
O355        O  0.11522325  0.30884558  0.86965997    -1.07750
O356        O  0.16569564  0.28442332  0.84090793    -0.64400
Ni357      Ni  0.15392884  0.31916115  0.86485653     1.26350
O358        O  0.10701290  0.33482419  0.92671581    -0.64630
O359        O  0.14648239  0.33642989  0.82310306    -0.76920
C360        C  0.20918673  0.34301528  0.88334319     0.86520
O361        O  0.19311450  0.33217363  0.86096579    -0.64100
Ni362      Ni  0.09476586  0.28815079  0.83732664     1.27450
Ni363      Ni  0.11692062  0.29528742  0.91396343     1.26060
H364        H  0.16859445  0.28499933  0.90903617     0.41070
O365        O  0.38915171  0.27755121  0.92328102    -0.78890
O366        O  0.46143390  0.16887614  0.93143142    -0.63580
O367        O  0.43820964  0.24681816  0.92266657    -1.10180
C368        C  0.42823954  0.23365431  0.80934311     1.08000
O369        O  0.47118148  0.15863837  0.87815404    -0.76790
O370        O  0.48776317  0.21309729  0.86741126    -0.64370
Ni371      Ni  0.41760270  0.26734370  0.95499734     1.34870
C372        C  0.48705415  0.24023075  0.87037054     0.86740
O373        O  0.46577183  0.21555602  0.96924181    -0.77320
O374        O  0.44672693  0.25823077  0.98629974    -0.87600
C375        C  0.47224690  0.15277811  0.90906036     0.86310
O376        O  0.39499105  0.23706801  0.97252604    -0.65800
O377        O  0.44920833  0.21685129  0.81486339    -0.85090
C378        C  0.39711691  0.20996525  0.97159177     0.87140
C379        C  0.46435394  0.23733827  0.98840767     1.08710
H380        H  0.41428290  0.19342256  0.88337689     0.40510
O381        O  0.43203066  0.20423738  0.88293459    -1.07750
O382        O  0.46413077  0.25498464  0.86558062    -0.64400
Ni383      Ni  0.42460791  0.24510683  0.87839271     1.26350
O384        O  0.41373547  0.19638060  0.95147834    -0.64630
O385        O  0.41234724  0.24289717  0.83276725    -0.76920
C386        C  0.39793883  0.29467208  0.90090575     0.86520
O387        O  0.41530971  0.28561883  0.87862713    -0.64100
Ni388      Ni  0.45828163  0.18933119  0.84978869     1.27450
Ni389      Ni  0.44847398  0.20809142  0.92750870     1.26060
H390        H  0.45617002  0.25719633  0.92258783     0.41070
O391        O  0.01997351  0.32412914  0.16426137    -0.78890
O392        O  0.07585042  0.19715518  0.16373323    -0.63580
O393        O  0.05914652  0.27854221  0.15944461    -1.10180
C394        C  0.02691610  0.24551836  0.05390307     1.08000
O395        O  0.10204163  0.20521147  0.11910856    -0.76790
O396        O  0.09630051  0.24577490  0.06995697    -0.64370
Ni397      Ni  0.03289754  0.29343256  0.19260776     1.34870
C398        C  0.09410098  0.27287259  0.07083469     0.86740
O399        O  0.07884755  0.23987023  0.20958433    -0.77320
O400        O  0.04199600  0.26590894  0.22752437    -0.87600
C401        C  0.09322155  0.18809071  0.14146504     0.86310
O402        O  0.00341194  0.26966695  0.17498819    -0.65800
O403        O  0.04458094  0.22465673  0.05599255    -0.85090
C404        C  0.00412569  0.24253637  0.17199917     0.87140
C405        C  0.06297797  0.24911670  0.23302447     1.08710
H406        H  0.03503048  0.22557870  0.11974899     0.40510
O407        O  0.05298333  0.23597089  0.11968773    -1.07750
O408        O  0.07742020  0.28644478  0.09089022    -0.64400
Ni409      Ni  0.04269886  0.27469979  0.11487276     1.26350
O410        O  0.02705228  0.22778532  0.17677299    -0.64630
O411        O  0.02540983  0.26724802  0.07313803    -0.76920
C412        C  0.01889170  0.32999622  0.13335757     0.86520
O413        O  0.02971013  0.31391066  0.11097689    -0.64100
Ni414      Ni  0.07364049  0.21548483  0.08735708     1.27450
Ni415      Ni  0.06657347  0.23767033  0.16396694     1.26060
H416        H  0.07689318  0.28935886  0.15900393     0.41070
C417        C  0.48574611  0.23974681  0.01222512    -0.11270
C418        C  0.00557444  0.24312327  0.03002380    -0.12830
C419        C  0.03732512  0.26184337  0.88785406    -0.11270
C420        C  0.01342600  0.25416852  0.87999423    -0.12830
C421        C  0.11871262  0.29401036  0.01704692    -0.11270
C422        C  0.10918781  0.28779017  0.04438491    -0.12830
C423        C  0.11900596  0.37611624  0.76219980    -0.11270
C424        C  0.12237259  0.35625099  0.77996419    -0.12830
C425        C  0.13344589  0.34862057  0.63004739    -0.11270
C426        C  0.14116738  0.32472883  0.63790428    -0.12830
C427        C  0.16708000  0.25266550  0.79438960    -0.11270
C428        C  0.17333416  0.24318512  0.76704176    -0.12830
C429        C  0.25580317  0.24325298  0.51243863    -0.11270
C430        C  0.23594173  0.23990436  0.53019445    -0.12830
C431        C  0.25621038  0.37392294  0.87429419    -0.11270
C432        C  0.23493083  0.35875954  0.87428125    -0.12830
C433        C  0.39109314  0.32471104  0.90445113    -0.11270
C434        C  0.38335212  0.34859136  0.91232789    -0.12830
C435        C  0.48500714  0.35891565  0.66819003    -0.11270
C436        C  0.00630860  0.37404579  0.66817341    -0.12830
C437        C  0.42325947  0.24329991  0.77533028    -0.11270
C438        C  0.41703091  0.25285661  0.74800832    -0.12830
C439        C  0.36882957  0.37641561  0.78009603    -0.11270
C440        C  0.37224778  0.35658376  0.76230178    -0.12830
C441        C  0.28738483  0.26205194  0.65443955    -0.11270
C442        C  0.26350151  0.25434209  0.66231665    -0.12830
C443        C  0.36890576  0.29414942  0.52532932    -0.11270
C444        C  0.35940472  0.28789665  0.49798964    -0.12830
C445        C  0.32411207  0.23010253  0.24798759    -0.11270
C446        C  0.31790158  0.23961693  0.27533331    -0.12830
C447        C  0.45385720  0.22091357  0.15450492    -0.11270
C448        C  0.47775458  0.22859698  0.16236613    -0.12830
C449        C  0.37246357  0.18880097  0.02534537    -0.11270
C450        C  0.38200737  0.19504451  0.99802327    -0.12830
C451        C  0.35788238  0.13427372  0.41237446    -0.11270
C452        C  0.35017176  0.15816700  0.40450490    -0.12830
C453        C  0.37226308  0.10666604  0.28019861    -0.11270
C454        C  0.36884133  0.12650316  0.26240761    -0.12830
C455        C  0.48796490  0.12701286  0.91813541    -0.11270
C456        C  0.00310273  0.10571159  0.91813535    -0.12830
C457        C  0.47769201  0.47852274  0.88004040    -0.11270
C458        C  0.45380041  0.47084682  0.88793230    -0.12830
C459        C  0.10777038  0.38413282  0.91230058    -0.11270
C460        C  0.10002404  0.40802603  0.90448029    -0.12830
C461        C  0.06798039  0.48951639  0.77538261    -0.11270
C462        C  0.07428146  0.47998585  0.74807524    -0.12830
C463        C  0.00314766  0.35575282  0.12429719    -0.11270
C464        C  0.48799208  0.37704351  0.12430177    -0.12830
C465        C  0.37236282  0.43872914  0.01712986    -0.11270
C466        C  0.38188713  0.44497300  0.04446282    -0.12830
C467        C  0.39107805  0.07473341  0.13796371    -0.11270
C468        C  0.38335569  0.09862703  0.13010645    -0.12830
C469        C  0.42327662  0.49330924  0.26708403    -0.11270
C470        C  0.41702701  0.00285929  0.29439886    -0.12830
C471        C  0.00531435  0.49303656  0.01223814    -0.11270
C472        C  0.48547726  0.48967227  0.03002312    -0.12830
C473        C  0.23814110  0.12713048  0.62412547    -0.11270
C474        C  0.25327722  0.10583101  0.62414228    -0.12830
C475        C  0.20392751  0.47093461  0.65455553    -0.11430
C476        C  0.22781767  0.47865220  0.66239261    -0.12830
C477        C  0.35928018  0.03781598  0.54439897    -0.11270
C478        C  0.36881382  0.04405796  0.51707142    -0.12830
C479        C  0.35017535  0.40819951  0.63802081    -0.11270
C480        C  0.35790352  0.38431952  0.63013070    -0.12830
C481        C  0.31787968  0.48963540  0.76712561    -0.11270
C482        C  0.32409192  0.48009075  0.79446134    -0.12830
C483        C  0.23813018  0.37709226  0.41824997    -0.11270
C484        C  0.25329878  0.35581651  0.41824297    -0.12830
C485        C  0.13206779  0.44507148  0.49806345    -0.11270
C486        C  0.12252595  0.43884066  0.52539154    -0.12830
C487        C  0.26349761  0.00425068  0.38005820    -0.11270
C488        C  0.28738387  0.01196382  0.38792113    -0.12830
C489        C  0.25560382  0.49309528  0.53012077    -0.11270
C490        C  0.23576646  0.48974400  0.51232509    -0.12830
C491        C  0.25621910  0.12399300  0.16806174    -0.11270
C492        C  0.23493401  0.10883297  0.16804798    -0.12830
C493        C  0.10004610  0.15804608  0.13792397    -0.11270
C494        C  0.10777284  0.13415666  0.13006496    -0.12830
C495        C  0.17334151  0.49320183  0.27532123    -0.11270
C496        C  0.16710067  0.00269784  0.24797191    -0.12830
C497        C  0.03731606  0.01188439  0.15449375    -0.11270
C498        C  0.01341661  0.00420656  0.16234890    -0.12830
C499        C  0.10912460  0.03769928  0.99802315    -0.11270
C500        C  0.11868918  0.04396564  0.02532878    -0.12830
C501        C  0.00633263  0.12396316  0.37430155    -0.11270
C502        C  0.48502253  0.10884198  0.37429926    -0.12830
C503        C  0.06801017  0.23948807  0.26703324    -0.11270
C504        C  0.07429617  0.22993490  0.29433896    -0.12830
C505        C  0.14121166  0.07471022  0.40447679    -0.11270
C506        C  0.13349867  0.09859606  0.41236211    -0.12830
C507        C  0.12240236  0.10624669  0.26241603    -0.11270
C508        C  0.11902844  0.12608247  0.28021419    -0.12830
C509        C  0.22784785  0.22863508  0.38007813    -0.11270
C510        C  0.20395479  0.22091145  0.38789174    -0.12830
C511        C  0.12256359  0.18886519  0.51700348    -0.11270
C512        C  0.13212080  0.19513402  0.54431110    -0.12830
O513        O  0.03796226  0.64075952  0.41426411    -0.78890
O514        O  0.16485803  0.69672261  0.41371074    -0.63580
O515        O  0.08352457  0.67994618  0.40942043    -1.10180
C516        C  0.11661667  0.64751129  0.30399759     1.08000
O517        O  0.15682887  0.72283014  0.36899119    -0.76790
O518        O  0.11632802  0.71693741  0.31978409    -0.64370
Ni519      Ni  0.06864946  0.65369606  0.44260320     1.34870
C520        C  0.08923549  0.71481030  0.32074459     0.86740
O521        O  0.12214421  0.69972314  0.45954973    -0.77320
O522        O  0.09616688  0.66281871  0.47750699    -0.87600
C523        C  0.17392464  0.71406589  0.39140205     0.86310
O524        O  0.09241736  0.62421167  0.42498921    -0.65800
O525        O  0.13748947  0.66516488  0.30606621    -0.85090
C526        C  0.11953883  0.62494913  0.42202292     0.87140
C527        C  0.11292783  0.68383253  0.48299856     1.08710
H528        H  0.13647787  0.65578816  0.36980519     0.40510
O529        O  0.12609490  0.67374887  0.36969697    -1.07750
O530        O  0.07566782  0.69818054  0.34086759    -0.64400
Ni531      Ni  0.08738623  0.66345339  0.36487569     1.26350
O532        O  0.13426453  0.64789305  0.42682843    -0.64630
O533        O  0.09484804  0.64610451  0.32317165    -0.76920
C534        C  0.03209888  0.63967606  0.38335961     0.86520
O535        O  0.04819103  0.65047453  0.36097378    -0.64100
Ni536      Ni  0.14660433  0.69433494  0.33732314     1.27450
Ni537      Ni  0.12437015  0.68740643  0.41394750     1.26060
H538        H  0.07270200  0.69768907  0.40895348     0.41070
O539        O  0.08448236  0.50980301  0.17325067    -0.78890
O540        O  0.19311802  0.58224242  0.18137026    -0.63580
O541        O  0.11522648  0.55888694  0.17269413    -1.10180
C542        C  0.12832914  0.54897822  0.05933715     1.08000
O543        O  0.20331535  0.59200879  0.12808575    -0.76790
O544        O  0.14885373  0.60854349  0.11741388    -0.64370
Ni545      Ni  0.09478411  0.53817709  0.20503096     1.34870
C546        C  0.12173508  0.60779995  0.12041194     0.86740
O547        O  0.14648749  0.58649136  0.21922931    -0.77320
O548        O  0.10397315  0.56721285  0.23643245    -0.87600
C549        C  0.20918800  0.59308078  0.15898766     0.86310
O550        O  0.12508624  0.51549473  0.22235653    -0.65800
O551        O  0.14509890  0.56998095  0.06484621    -0.85090
C552        C  0.15216967  0.51775844  0.22150595     0.87140
C553        C  0.12479808  0.58492246  0.23850560     1.08710
H554        H  0.16859737  0.53503839  0.13333726     0.40510
O555        O  0.15777229  0.55278062  0.13290964    -1.07750
O556        O  0.10701013  0.58485415  0.11562236    -0.64400
Ni557      Ni  0.11692011  0.54532094  0.12840083     1.26350
O558        O  0.16571415  0.53448868  0.20147119    -0.64630
O559        O  0.11911186  0.53307364  0.08277104    -0.76920
C560        C  0.06735990  0.51865681  0.15091723     0.86520
O561        O  0.07642578  0.53602833  0.12864144    -0.64100
Ni562      Ni  0.17262237  0.57907787  0.09975331     1.27450
Ni563      Ni  0.15393326  0.56921402  0.17748964     1.26060
H564        H  0.10482133  0.57683579  0.17265077     0.41070
O565        O  0.13922587  0.52754629  0.42328238    -0.78890
O566        O  0.21150508  0.91889817  0.43150748    -0.63580
O567        O  0.18827945  0.99682928  0.42269971    -1.10180
C568        C  0.17834362  0.98361234  0.30935618     1.08000
O569        O  0.22135601  0.90869228  0.37824804    -0.76790
O570        O  0.23788046  0.96315010  0.36746641    -0.64370
Ni571      Ni  0.16766470  0.51735883  0.45501934     1.34870
C572        C  0.23714495  0.99028246  0.37042060     0.86740
O573        O  0.21581057  0.96557348  0.46931510    -0.77320
O574        O  0.19676872  0.00825442  0.48634902    -0.87600
C575        C  0.22238181  0.90282746  0.40915402     0.86310
O576        O  0.14504309  0.98708410  0.47254562    -0.65800
O577        O  0.19932491  0.96682924  0.31489582    -0.85090
C578        C  0.14717128  0.95998172  0.47161957     0.87140
C579        C  0.21438467  0.98735385  0.48848210     1.08710
H580        H  0.16439729  0.94341477  0.38339538     0.40510
O581        O  0.18213898  0.95424018  0.38297070    -1.07750
O582        O  0.21421049  0.50501211  0.36561186    -0.64400
Ni583      Ni  0.17469497  0.99510352  0.37841118     1.26350
O584        O  0.16379004  0.94639483  0.45150694    -0.64630
O585        O  0.16245269  0.99287473  0.33277384    -0.76920
C586        C  0.14802092  0.54466691  0.40091185     0.86520
O587        O  0.16538220  0.53560918  0.37862758    -0.64100
Ni588      Ni  0.20842438  0.93934620  0.34985153     1.27450
Ni589      Ni  0.19854455  0.95810607  0.42756383     1.26060
H590        H  0.20623949  0.00720799  0.42262807     0.41070
O591        O  0.26999880  0.57421700  0.66416625    -0.78890
O592        O  0.32595492  0.94728541  0.66384165    -0.63580
O593        O  0.30918970  0.52865052  0.65947754    -1.10180
C594        C  0.27697721  0.49549968  0.55396750     1.08000
O595        O  0.35213379  0.95536126  0.61920637    -0.76790
O596        O  0.34630397  0.49579661  0.56990782    -0.64370
Ni597      Ni  0.28289418  0.54355327  0.69257699     1.34870
C598        C  0.34417978  0.52289928  0.57084003     0.86740
O599        O  0.32884561  0.99002019  0.70969452    -0.77320
O600        O  0.29195811  0.51606135  0.72753972    -0.87600
C601        C  0.34333986  0.93823789  0.64157526     0.86310
O602        O  0.25344421  0.51975489  0.67494025    -0.65800
O603        O  0.29458186  0.97459623  0.55612170    -0.85090
C604        C  0.25417469  0.99261973  0.67200789     0.87140
C605        C  0.31292731  0.49926637  0.73309666     1.08710
H606        H  0.28510493  0.97567723  0.61982138     0.40510
O607        O  0.30306493  0.98605594  0.61975603    -1.07750
O608        O  0.32756599  0.53648469  0.59095764    -0.64400
Ni609      Ni  0.29280190  0.52477525  0.61487612     1.26350
O610        O  0.27710657  0.97788676  0.67682328    -0.64630
O611        O  0.27555506  0.51729456  0.57311453    -0.76920
C612        C  0.26898611  0.58007464  0.63325662     0.86520
O613        O  0.27984681  0.56398355  0.61091245    -0.64100
Ni614      Ni  0.32369663  0.96552102  0.58745500     1.27450
Ni615      Ni  0.31663051  0.98778906  0.66404954     1.26060
H616        H  0.32693197  0.53947508  0.65905903     0.41070
O617        O  0.47120795  0.90866920  0.16427431    -0.78890
O618        O  0.41529940  0.53562997  0.16376565    -0.63580
O619        O  0.43201818  0.95424671  0.15949317    -1.10180
C620        C  0.46413862  0.98727369  0.05390495     1.08000
O621        O  0.38906733  0.52756303  0.11916973    -0.76790
O622        O  0.39477626  0.98699863  0.07001134    -0.64370
Ni623      Ni  0.45830493  0.93936112  0.19262846     1.34870
C624        C  0.39697878  0.95990039  0.07090270     0.86740
O625        O  0.41236928  0.99292290  0.20964718    -0.77320
O626        O  0.44923829  0.96688102  0.22754929    -0.87600
C627        C  0.39790507  0.54468822  0.14151120     0.86310
O628        O  0.48776788  0.96313387  0.17497430    -0.65800
O629        O  0.44647765  0.00813686  0.05600753    -0.85090
C630        C  0.48704856  0.99026461  0.17198308     0.87140
C631        C  0.42826606  0.98367761  0.23307024     1.08710
H632        H  0.45608422  0.50720644  0.11975035     0.40510
O633        O  0.43812920  0.99681444  0.11971128    -1.07750
O634        O  0.41366845  0.94633543  0.09096260    -0.64400
Ni635      Ni  0.44841424  0.95808771  0.11489744     1.26350
O636        O  0.46412238  0.50501376  0.17676356    -0.64630
O637        O  0.46565557  0.96553931  0.07313787    -0.76920
C638        C  0.47225431  0.90279870  0.13337177     0.86520
O639        O  0.46140473  0.91887867  0.11099931    -0.64100
Ni640      Ni  0.41744481  0.51729840  0.08739421     1.27450
Ni641      Ni  0.42458847  0.99511771  0.16400950     1.26060
H642        H  0.41427255  0.94342732  0.15907912     0.41070
O643        O  0.10192535  0.95516495  0.92338655    -0.78890
O644        O  0.02969028  0.56388178  0.93144087    -0.63580
O645        O  0.05286968  0.98592525  0.92271290    -1.10180
C646        C  0.06292406  0.49911539  0.80939350     1.08000
O647        O  0.01985240  0.57406472  0.87816720    -0.76790
O648        O  0.00332499  0.51960419  0.86740435    -0.64370
Ni649      Ni  0.07345532  0.96539070  0.95506776     1.34870
C650        C  0.00405050  0.99247316  0.87038467     0.86740
O651        O  0.02533548  0.51721684  0.96927723    -0.77320
O652        O  0.04431683  0.97451437  0.98633839    -0.87600
C653        C  0.01882643  0.57995000  0.90906768     0.86310
O654        O  0.09607339  0.49566413  0.97260307    -0.65800
O655        O  0.04192989  0.51589413  0.81488387    -0.85090
C656        C  0.09398571  0.52276948  0.97162210     0.87140
C657        C  0.02672034  0.49542738  0.98843947     1.08710
H658        H  0.07680275  0.53932280  0.88340001     0.40510
O659        O  0.05905778  0.52850309  0.88296541    -1.07750
O660        O  0.02698284  0.97773588  0.86560116    -0.64400
Ni661      Ni  0.06649202  0.98763647  0.87845031     1.26350
O662        O  0.07738266  0.53635543  0.95148561    -0.64630
O663        O  0.07878550  0.98985645  0.83284354    -0.76920
C664        C  0.09315487  0.93806335  0.90098401     0.86520
O665        O  0.07579503  0.94712919  0.87869655    -0.64100
Ni666      Ni  0.03279963  0.54339397  0.84980594     1.27450
Ni667      Ni  0.04262620  0.52465977  0.92753840     1.26060
H668        H  0.03490383  0.97555678  0.92262390     0.41070
O669        O  0.45340531  0.59205017  0.41426966    -0.78890
O670        O  0.32648306  0.53613482  0.41377347    -0.63580
O671        O  0.40782447  0.55288702  0.40946087    -1.10180
C672        C  0.37470655  0.58524890  0.30399962     1.08000
O673        O  0.33452729  0.50998143  0.36910663    -0.76790
O674        O  0.37501384  0.51581873  0.31989293    -0.64370
Ni675      Ni  0.42271721  0.57914680  0.44261905     1.34870
C676        C  0.40210425  0.51797605  0.32081682     0.86740
O677        O  0.36920386  0.53315997  0.45962596    -0.77320
O678        O  0.39520477  0.57006261  0.47753452    -0.87600
C679        C  0.31741893  0.51877709  0.39148011     0.86310
O680        O  0.39895763  0.60863341  0.42497998    -0.65800
O681        O  0.35385164  0.56757523  0.30608216    -0.85090
C682        C  0.37183421  0.60790836  0.42202028     0.87140
C683        C  0.37843534  0.54906209  0.48305500     1.08710
H684        H  0.35486107  0.57702089  0.36981684     0.40510
O685        O  0.36524807  0.55906225  0.36973269    -1.07750
O686        O  0.41567608  0.53463187  0.34090632    -0.64400
Ni687      Ni  0.40395327  0.56936169  0.36489901     1.26350
O688        O  0.35709833  0.58497021  0.42683015    -0.64630
O689        O  0.39647271  0.58669246  0.32318047    -0.76920
C690        C  0.45925425  0.59313600  0.38336354     0.86520
O691        O  0.44314621  0.58234963  0.36098375    -0.64100
Ni692      Ni  0.34474148  0.53843936  0.33738874     1.27450
Ni693      Ni  0.36697641  0.54544094  0.41400321     1.26060
H694        H  0.41864140  0.53514050  0.40900694     0.41070
O695        O  0.40669427  0.72298796  0.17325808    -0.78890
O696        O  0.29806072  0.65054259  0.18140175    -0.63580
O697        O  0.37595066  0.67390630  0.17271600    -1.10180
C698        C  0.36283006  0.68380615  0.05935936     1.08000
O699        O  0.28782778  0.64083707  0.12811093    -0.76790
O700        O  0.34228250  0.62426299  0.11746336    -0.64370
Ni701      Ni  0.39640460  0.69461052  0.20504369     1.34870
C702        C  0.36940313  0.62499281  0.12045500     0.86740
O703        O  0.34471034  0.64628242  0.21925317    -0.77320
O704        O  0.38722655  0.66556868  0.23644694    -0.87600
C705        C  0.28197048  0.63973957  0.15901352     0.86310
O706        O  0.36611034  0.71729181  0.22237000    -0.65800
O707        O  0.34605915  0.66280813  0.06488212    -0.85090
C708        C  0.33902699  0.71502962  0.22152852     0.87140
C709        C  0.36641135  0.64784728  0.23851861     1.08710
H710        H  0.32257553  0.69776993  0.13337070     0.40510
O711        O  0.33339565  0.68002481  0.13293897    -1.07750
O712        O  0.38413880  0.64793214  0.11565697    -0.64400
Ni713      Ni  0.37424862  0.68747287  0.12842068     1.26350
O714        O  0.32547279  0.69829466  0.20150895    -0.64630
O715        O  0.37205036  0.69971730  0.08278399    -0.76920
C716        C  0.42381379  0.71413561  0.15092739     0.86520
O717        O  0.41474587  0.69676001  0.12865816    -0.64100
Ni718      Ni  0.31852992  0.65373955  0.09978482     1.27450
Ni719      Ni  0.33724605  0.66357646  0.17751774     1.26060
H720        H  0.38635618  0.65595774  0.17267481     0.41070
O721        O  0.33453382  0.76000668  0.67323480    -0.78890
O722        O  0.44312764  0.83242636  0.68148424    -0.63580
O723        O  0.36524839  0.80908770  0.67268620    -1.10180
C724        C  0.37848705  0.79915660  0.55936122     1.08000
O725        O  0.45342533  0.84210314  0.62820230    -0.76790
O726        O  0.39898286  0.85870038  0.61749320    -0.64370
Ni727      Ni  0.34475663  0.78841412  0.70500316     1.34870
C728        C  0.37185968  0.85796955  0.62044817     0.86740
O729        O  0.39644328  0.83672019  0.71925603    -0.77320
O730        O  0.35387659  0.81749710  0.73637119    -0.87600
C731        C  0.45925040  0.84320208  0.65911346     0.86310
O732        O  0.37503367  0.76576154  0.72243697    -0.65800
O733        O  0.39523417  0.82016855  0.56490645    -0.85090
C734        C  0.40212037  0.76797410  0.72157665     0.87140
C735        C  0.37470185  0.83520537  0.73846150     1.08710
H736        H  0.41866172  0.78520312  0.63344081     0.40510
O737        O  0.40784185  0.80294783  0.63298117    -1.07750
O738        O  0.35712603  0.83503693  0.61560021    -0.64400
Ni739      Ni  0.36699638  0.79549950  0.62840539     1.26350
O740        O  0.41569006  0.78468712  0.70154814    -0.64630
O741        O  0.36924580  0.78324420  0.58277751    -0.76920
C742        C  0.31742570  0.76883665  0.65087446     0.86520
O743        O  0.32650040  0.78620305  0.62859470    -0.64100
Ni744      Ni  0.42274052  0.82922448  0.59983876     1.27450
Ni745      Ni  0.40394667  0.81940962  0.67754225     1.26060
H746        H  0.35484602  0.82703775  0.67261283     0.41070
O747        O  0.28780662  0.89072869  0.91428045    -0.78890
O748        O  0.41469102  0.94672235  0.91382147    -0.63580
O749        O  0.33334686  0.92995743  0.90950704    -1.10180
C750        C  0.36640046  0.89777815  0.80395796     1.08000
O751        O  0.40663049  0.97293351  0.86920182    -0.76790
O752        O  0.36609419  0.96720382  0.82003319    -0.64370
Ni753      Ni  0.31848286  0.90364765  0.94263995     1.34870
C754        C  0.33900820  0.96498570  0.82090395     0.86740
O755        O  0.37198292  0.94964889  0.95968551    -0.77320
O756        O  0.34598770  0.91273116  0.97756883    -0.87600
C757        C  0.42375522  0.96408908  0.89153706     0.86310
O758        O  0.34226178  0.87419085  0.92497761    -0.65800
O759        O  0.38723427  0.91547619  0.80604735    -0.85090
C760        C  0.36938209  0.87493825  0.92199980     0.87140
C761        C  0.36275166  0.93373298  0.98310442     1.08710
H762        H  0.38630844  0.90590092  0.86980332     0.40510
O763        O  0.37590953  0.92385303  0.86975134    -1.07750
O764        O  0.32544827  0.94827501  0.84094740    -0.64400
Ni765      Ni  0.33720659  0.91353557  0.86492159     1.26350
O766        O  0.38410252  0.89788230  0.92682078    -0.64630
O767        O  0.34467403  0.89625532  0.82318405    -0.76920
C768        C  0.28194737  0.88967191  0.88337502     0.86520
O769        O  0.29802400  0.90052024  0.86100708    -0.64100
Ni770      Ni  0.39638068  0.94454143  0.83742693     1.27450
Ni771      Ni  0.37419649  0.93741741  0.91404623     1.26060
H772        H  0.32252058  0.94769898  0.90907991     0.41070
O773        O  0.35219880  0.70534030  0.42327627    -0.78890
O774        O  0.27995065  0.81402396  0.43149252    -0.63580
O775        O  0.30314576  0.73608153  0.42273823    -1.10180
C776        C  0.31294599  0.74923061  0.30936309     1.08000
O777        O  0.27001380  0.82419283  0.37824206    -0.76790
O778        O  0.25347777  0.76973187  0.36750889    -0.64370
Ni779      Ni  0.32381526  0.71557795  0.45505265     1.34870
C780        C  0.25420939  0.74259984  0.37047527     0.86740
O781        O  0.27568998  0.76738190  0.46935949    -0.77320
O782        O  0.29476122  0.72472084  0.48642889    -0.87600
C783        C  0.26903590  0.83007821  0.40914290     0.86310
O784        O  0.34646712  0.74586307  0.47248944    -0.65800
O785        O  0.29198509  0.76603504  0.31490904    -0.85090
C786        C  0.34431733  0.77296426  0.47155135     0.87140
C787        C  0.27715015  0.74562442  0.48856223     1.08710
H788        H  0.32698721  0.78946470  0.38333623     0.40510
O789        O  0.30924182  0.77864396  0.38294989    -1.07750
O790        O  0.27714186  0.72786465  0.36569234    -0.64400
Ni791      Ni  0.31667219  0.73777546  0.37842654     1.26350
O792        O  0.32767809  0.78653570  0.45144284    -0.64630
O793        O  0.32885708  0.73997044  0.33276956    -0.76920
C794        C  0.34336295  0.68821254  0.40093615     0.86520
O795        O  0.32597375  0.69726735  0.37867365    -0.64100
Ni796      Ni  0.28292077  0.79352921  0.34985397     1.27450
Ni797      Ni  0.29289509  0.77481171  0.42757101     1.26060
H798        H  0.28518323  0.72570647  0.42270557     0.41070
O799        O  0.22141499  0.65875047  0.66412140    -0.78890
O800        O  0.16536597  0.78563371  0.66374256    -0.63580
O801        O  0.18218324  0.70428183  0.65939750    -1.10180
C802        C  0.21450759  0.73748210  0.55395998     1.08000
O803        O  0.13925030  0.77758036  0.61904443    -0.76790
O804        O  0.14517283  0.73716811  0.56973281    -0.64370
Ni805      Ni  0.20847563  0.68939455  0.69251872     1.34870
C806        C  0.14724895  0.71006224  0.57072093     0.86740
O807        O  0.16245665  0.74287630  0.70958523    -0.77320
O808        O  0.19935828  0.71686636  0.72747044    -0.87600
C809        C  0.14800849  0.79468973  0.64144552     0.86310
O810        O  0.23791490  0.71322065  0.67490577    -0.65800
O811        O  0.19690810  0.75839603  0.55608919    -0.85090
C812        C  0.23716246  0.74035452  0.67196663     0.87140
C813        C  0.17835354  0.73361930  0.73300689     1.08710
H814        H  0.20628345  0.75726653  0.61978196     0.40510
O815        O  0.18832309  0.74688929  0.61968693    -1.07750
O816        O  0.16382876  0.69647347  0.59088032    -0.64400
Ni817      Ni  0.19859079  0.70816915  0.61481406     1.26350
O818        O  0.21421978  0.75506576  0.67679087    -0.64630
O819        O  0.21586454  0.71565643  0.57307121    -0.76920
C820        C  0.22242205  0.65288243  0.63321675     0.86520
O821        O  0.21154289  0.66895883  0.61086274    -0.64100
Ni822      Ni  0.16773747  0.76744234  0.58735246     1.27450
Ni823      Ni  0.17471452  0.74513691  0.66395916     1.26060
H824        H  0.16444838  0.69344537  0.65896624     0.41070
O825        O  0.15679439  0.97287483  0.67341398    -0.78890
O826        O  0.04816020  0.90056848  0.68146797    -0.63580
O827        O  0.12606440  0.92380332  0.67272559    -1.10180
C828        C  0.11289093  0.93384080  0.55940581     1.08000
O829        O  0.03792264  0.89082281  0.62818886    -0.76790
O830        O  0.09236847  0.87425796  0.61745483    -0.64370
Ni831      Ni  0.14658495  0.94438190  0.70509439     1.34870
C832        C  0.11949153  0.87498510  0.62041262     0.86740
O833        O  0.09481366  0.89618785  0.71927207    -0.77320
O834        O  0.13748125  0.91520517  0.73635569    -0.87600
C835        C  0.03206595  0.88975738  0.65909471     0.86310
O836        O  0.11631642  0.96698175  0.72264854    -0.65800
O837        O  0.09610859  0.91284782  0.56491677    -0.85090
C838        C  0.08922265  0.96487300  0.72166984     0.87140
C839        C  0.11659532  0.89756723  0.73843333     1.08710
H840        H  0.07267937  0.94774843  0.63344467     0.40510
O841        O  0.08349521  0.93000111  0.63299237    -1.07750
O842        O  0.13422533  0.89792556  0.61561297    -0.64400
Ni843      Ni  0.12434281  0.93744672  0.62846196     1.26350
O844        O  0.07565168  0.94826615  0.70152723    -0.64630
O845        O  0.12212319  0.94973807  0.58284067    -0.76920
C846        C  0.17389561  0.96410441  0.65101752     0.86520
O847        O  0.16483230  0.94675982  0.62870906    -0.64100
Ni848      Ni  0.06860159  0.90374499  0.59983287     1.27450
Ni849      Ni  0.08735562  0.91352572  0.67755289     1.26060
H850        H  0.13643806  0.90583730  0.67262831     0.41070
O851        O  0.20331674  0.84195806  0.91424339    -0.78890
O852        O  0.07642914  0.78598645  0.91371663    -0.63580
O853        O  0.15777086  0.80274250  0.90944968    -1.10180
C854        C  0.12477276  0.83489765  0.80384864     1.08000
O855        O  0.08449017  0.75976618  0.86910949    -0.76790
O856        O  0.12506195  0.76548312  0.81996967    -0.64370
Ni857      Ni  0.17262834  0.82904982  0.94258272     1.34870
C858        C  0.15214721  0.76772042  0.82084841     0.86740
O859        O  0.11911545  0.78306337  0.95961095    -0.77320
O860        O  0.14510998  0.81998014  0.97749216    -0.87600
C861        C  0.06736747  0.76861396  0.89144067     0.86310
O862        O  0.14885930  0.85851031  0.92490006    -0.65800
O863        O  0.10393281  0.81720583  0.80593232    -0.85090
C864        C  0.12173814  0.85776983  0.92192280     0.87140
C865        C  0.12833837  0.79898558  0.98302648     1.08710
H866        H  0.10482571  0.82679850  0.86969717     0.40510
O867        O  0.11522334  0.80884548  0.86965996    -1.07750
O868        O  0.16569564  0.78442294  0.84090795    -0.64400
Ni869      Ni  0.15392896  0.81916090  0.86485642     1.26350
O870        O  0.10701295  0.83482404  0.92671590    -0.64630
O871        O  0.14648255  0.83642956  0.82310289    -0.76920
C872        C  0.20918674  0.84301521  0.88334283     0.86520
O873        O  0.19311463  0.83217323  0.86096556    -0.64100
Ni874      Ni  0.09476586  0.78815077  0.83732661     1.27450
Ni875      Ni  0.11692072  0.79528730  0.91396342     1.26060
H876        H  0.16859454  0.78499921  0.90903616     0.41070
O877        O  0.38915174  0.77755082  0.92328088    -0.78890
O878        O  0.46143401  0.66887581  0.93143158    -0.63580
O879        O  0.43820973  0.74681784  0.92266656    -1.10180
C880        C  0.42823963  0.73365388  0.80934311     1.08000
O881        O  0.47118161  0.65863797  0.87815421    -0.76790
O882        O  0.48776330  0.71309693  0.86741135    -0.64370
Ni883      Ni  0.41760273  0.76734341  0.95499725     1.34870
C884        C  0.48705427  0.74023040  0.87037058     0.86740
O885        O  0.46577191  0.71555580  0.96924191    -0.77320
O886        O  0.44672695  0.75823057  0.98629969    -0.87600
C887        C  0.47224698  0.65277772  0.90906055     0.86310
O888        O  0.39499110  0.73706774  0.97252600    -0.65800
O889        O  0.44920845  0.71685088  0.81486341    -0.85090
C890        C  0.39711698  0.70996498  0.97159180     0.87140
C891        C  0.46435398  0.73733810  0.98840770     1.08710
H892        H  0.41428304  0.69342217  0.88337697     0.40510
O893        O  0.43203080  0.70423700  0.88293467    -1.07750
O894        O  0.46413088  0.75498426  0.86558061    -0.64400
Ni895      Ni  0.42460801  0.74510642  0.87839271     1.26350
O896        O  0.41373557  0.69638031  0.95147843    -0.64630
O897        O  0.41234732  0.74289671  0.83276726    -0.76920
C898        C  0.39793884  0.79467166  0.90090556     0.86520
O899        O  0.41530978  0.78561840  0.87862702    -0.64100
Ni900      Ni  0.45828178  0.68933079  0.84978879     1.27450
Ni901      Ni  0.44847409  0.70809110  0.92750878     1.26060
H902        H  0.45617010  0.75719602  0.92258782     0.41070
O903        O  0.01997348  0.82412914  0.16426137    -0.78890
O904        O  0.07585045  0.69715524  0.16373321    -0.63580
O905        O  0.05914654  0.77854224  0.15944467    -1.10180
C906        C  0.02691613  0.74551843  0.05390310     1.08000
O907        O  0.10204166  0.70521160  0.11910855    -0.76790
O908        O  0.09630044  0.74577487  0.06995684    -0.64370
Ni909      Ni  0.03289749  0.79343251  0.19260778     1.34870
C910        C  0.09410109  0.77287257  0.07083469     0.86740
O911        O  0.07884756  0.73987023  0.20958435    -0.77320
O912        O  0.04199596  0.76590886  0.22752439    -0.87600
C913        C  0.09322161  0.68809082  0.14146503     0.86310
O914        O  0.00341192  0.76966689  0.17498811    -0.65800
O915        O  0.04458085  0.72465670  0.05599266    -0.85090
C916        C  0.00412570  0.74253631  0.17199911     0.87140
C917        C  0.06297795  0.74911665  0.23302449     1.08710
H918        H  0.03503047  0.72557883  0.11974899     0.40510
O919        O  0.05298335  0.73597097  0.11968774    -1.07750
O920        O  0.07742043  0.78644480  0.09089033    -0.64400
Ni921      Ni  0.04269899  0.77469990  0.11487276     1.26350
O922        O  0.02705230  0.72778530  0.17677298    -0.64630
O923        O  0.02541002  0.76724819  0.07313795    -0.76920
C924        C  0.01889186  0.82999634  0.13335759     0.86520
O925        O  0.02971038  0.81391083  0.11097691    -0.64100
Ni926      Ni  0.07364046  0.71548485  0.08735711     1.27450
Ni927      Ni  0.06657349  0.73767037  0.16396696     1.26060
H928        H  0.07689320  0.78935890  0.15900407     0.41070
C929        C  0.48574612  0.73974675  0.01222517    -0.11270
C930        C  0.00557444  0.74312334  0.03002387    -0.12830
C931        C  0.03732522  0.76184313  0.88785407    -0.11270
C932        C  0.01342611  0.75416821  0.87999426    -0.12830
C933        C  0.11871284  0.79401024  0.01704694    -0.11270
C934        C  0.10918797  0.78779012  0.04438492    -0.12830
C935        C  0.11900623  0.87611630  0.76219996    -0.11270
C936        C  0.12237274  0.85625097  0.77996426    -0.12830
C937        C  0.13344573  0.84862003  0.63004797    -0.11270
C938        C  0.14116729  0.82472829  0.63790472    -0.12830
C939        C  0.16707999  0.75266516  0.79438953    -0.11270
C940        C  0.17333425  0.74318466  0.76704177    -0.12830
C941        C  0.25580319  0.74325305  0.51243857    -0.11270
C942        C  0.23594178  0.73990429  0.53019441    -0.12830
C943        C  0.25621026  0.87392298  0.87429346    -0.11270
C944        C  0.23493075  0.85875954  0.87428071    -0.12830
C945        C  0.39109304  0.82471058  0.90445076    -0.11270
C946        C  0.38335195  0.84859090  0.91232740    -0.12830
C947        C  0.48500702  0.85891565  0.66819063    -0.11270
C948        C  0.00630846  0.87404581  0.66817421    -0.12830
C949        C  0.42325950  0.74329951  0.77533029    -0.11270
C950        C  0.41703084  0.75285630  0.74800838    -0.12830
C951        C  0.36882985  0.87641564  0.78009588    -0.11270
C952        C  0.37224790  0.85658373  0.76230170    -0.12830
C953        C  0.28738493  0.76205167  0.65443949    -0.11270
C954        C  0.26350163  0.75434173  0.66231658    -0.12830
C955        C  0.36890601  0.79414930  0.52532928    -0.11270
C956        C  0.35940492  0.78789661  0.49798960    -0.12830
C957        C  0.32411207  0.73010240  0.24798762    -0.11270
C958        C  0.31790154  0.73961685  0.27533330    -0.12830
C959        C  0.45385725  0.72091334  0.15450484    -0.11270
C960        C  0.47775461  0.72859685  0.16236604    -0.12830
C961        C  0.37246357  0.68880079  0.02534541    -0.11270
C962        C  0.38200741  0.69504428  0.99802331    -0.12830
C963        C  0.35788249  0.63427393  0.41237454    -0.11270
C964        C  0.35017185  0.65816717  0.40450492    -0.12830
C965        C  0.37226297  0.60666596  0.28019885    -0.11270
C966        C  0.36884126  0.62650303  0.26240774    -0.12830
C967        C  0.48796485  0.62701236  0.91813567    -0.11270
C968        C  0.00310259  0.60571101  0.91813572    -0.12830
C969        C  0.47769181  0.97852236  0.88003989    -0.11270
C970        C  0.45380032  0.97084641  0.88793221    -0.12830
C971        C  0.10777028  0.88413287  0.91230172    -0.11270
C972        C  0.10002363  0.90802613  0.90448208    -0.12830
C973        C  0.06798115  0.98951602  0.77538331    -0.11270
C974        C  0.07428198  0.97998557  0.74807582    -0.12830
C975        C  0.00314794  0.85575304  0.12429720    -0.11270
C976        C  0.48799238  0.87704376  0.12430167    -0.12830
C977        C  0.37236227  0.93872743  0.01713018    -0.11270
C978        C  0.38188580  0.94497072  0.04446370    -0.12830
C979        C  0.39107800  0.57473317  0.13796287    -0.11270
C980        C  0.38335534  0.59862677  0.13010600    -0.12830
C981        C  0.42327740  0.99330929  0.26708390    -0.11270
C982        C  0.41702645  0.50285923  0.29439905    -0.12830
C983        C  0.00530730  0.99303758  0.01223390    -0.11270
C984        C  0.48546998  0.98967294  0.03001845    -0.12830
C985        C  0.23814105  0.62712989  0.62412515    -0.11270
C986        C  0.25327706  0.60583033  0.62414182    -0.12830
C987        C  0.20392736  0.97093416  0.65455569    -0.11430
C988        C  0.22781739  0.97865178  0.66239326    -0.12830
C989        C  0.35928161  0.53781731  0.54440029    -0.11270
C990        C  0.36881439  0.54405887  0.51707221    -0.12830
C991        C  0.35017486  0.90819964  0.63801876    -0.11270
C992        C  0.35790339  0.88431959  0.63012939    -0.12830
C993        C  0.31788055  0.98963499  0.76712483    -0.11270
C994        C  0.32409254  0.98009043  0.79446068    -0.12830
C995        C  0.23813051  0.87709256  0.41825010    -0.11270
C996        C  0.25329908  0.85581676  0.41824297    -0.12830
C997        C  0.13206624  0.94506887  0.49806243    -0.11270
C998        C  0.12252531  0.93883866  0.52539114    -0.12830
C999        C  0.26349766  0.50425187  0.38005671    -0.11270
C1000       C  0.28738373  0.51196487  0.38792056    -0.12830
C1001       C  0.25559570  0.99309650  0.53012564    -0.11270
C1002       C  0.23575810  0.98974483  0.51233042    -0.12830
C1003       C  0.25621904  0.62399290  0.16806182    -0.11270
C1004       C  0.23493397  0.60883283  0.16804808    -0.12830
C1005       C  0.10004618  0.65804622  0.13792392    -0.11270
C1006       C  0.10777294  0.63415684  0.13006484    -0.12830
C1007       C  0.17334243  0.99320188  0.27532132    -0.11270
C1008       C  0.16709999  0.50269778  0.24797174    -0.12830
C1009       C  0.03731588  0.51188536  0.15449413    -0.11270
C1010       C  0.01341660  0.50420764  0.16235012    -0.12830
C1011       C  0.10912586  0.53770045  0.99802193    -0.11270
C1012       C  0.11868970  0.54396645  0.02532803    -0.12830
C1013       C  0.00633258  0.62396309  0.37430145    -0.11270
C1014       C  0.48502250  0.60884186  0.37429914    -0.12830
C1015       C  0.06801018  0.73948798  0.26703325    -0.11270
C1016       C  0.07429621  0.72993476  0.29433894    -0.12830
C1017       C  0.14121166  0.57470997  0.40447779    -0.11270
C1018       C  0.13349830  0.59859578  0.41236266    -0.12830
C1019       C  0.12240220  0.60624662  0.26241578    -0.11270
C1020       C  0.11902835  0.62608232  0.28021406    -0.12830
C1021       C  0.22784789  0.72863496  0.38007825    -0.11270
C1022       C  0.20395487  0.72091121  0.38789185    -0.12830
C1023       C  0.12256360  0.68886500  0.51700345    -0.11270
C1024       C  0.13212086  0.69513375  0.54431106    -0.12830
O1025       O  0.53796249  0.14075938  0.41426414    -0.78890
O1026       O  0.66485800  0.19672294  0.41371073    -0.63580
O1027       O  0.58352461  0.17994626  0.40942050    -1.10180
C1028       C  0.61661672  0.14751151  0.30399762     1.08000
O1029       O  0.65682877  0.22283043  0.36899117    -0.76790
O1030       O  0.61632799  0.21693754  0.31978401    -0.64370
Ni1031     Ni  0.56864967  0.15369599  0.44260321     1.34870
C1032       C  0.58923547  0.21481049  0.32074462     0.86740
O1033       O  0.62214420  0.19972331  0.45954976    -0.77320
O1034       O  0.59616709  0.16281871  0.47750699    -0.87600
C1035       C  0.67392457  0.21406621  0.39140202     0.86310
O1036       O  0.59241768  0.12421174  0.42498907    -0.65800
O1037       O  0.63748956  0.16516505  0.30606629    -0.85090
C1038       C  0.61953914  0.12494931  0.42202272     0.87140
C1039       C  0.61292789  0.18383264  0.48299858     1.08710
H1040       H  0.63647788  0.15578840  0.36980516     0.40510
O1041       O  0.62609491  0.17374911  0.36969697    -1.07750
O1042       O  0.57566781  0.19818082  0.34086773    -0.64400
Ni1043     Ni  0.58738624  0.16345361  0.36487570     1.26350
O1044       O  0.63426474  0.14789327  0.42682837    -0.64630
O1045       O  0.59484802  0.14610483  0.32317159    -0.76920
C1046       C  0.53209899  0.13967610  0.38335966     0.86520
O1047       O  0.54819103  0.15047474  0.36097382    -0.64100
Ni1048     Ni  0.64660434  0.19433517  0.33732315     1.27450
Ni1049     Ni  0.62437016  0.18740663  0.41394752     1.26060
H1050       H  0.57270197  0.19768912  0.40895365     0.41070
O1051       O  0.58448233  0.00980273  0.17325137    -0.78890
O1052       O  0.69311807  0.08224263  0.18137035    -0.63580
O1053       O  0.61522658  0.05888683  0.17269458    -1.10180
C1054       C  0.62832901  0.04897765  0.05933770     1.08000
O1055       O  0.70331534  0.09200875  0.12808576    -0.76790
O1056       O  0.64885365  0.10854332  0.11741396    -0.64370
Ni1057     Ni  0.59478438  0.03817691  0.20503154     1.34870
C1058       C  0.62173501  0.10779973  0.12041214     0.86740
O1059       O  0.64648763  0.08649152  0.21922952    -0.77320
O1060       O  0.60397352  0.06721271  0.23643296    -0.87600
C1061       C  0.70918802  0.09308089  0.15898766     0.86310
O1062       O  0.62508669  0.01549460  0.22235689    -0.65800
O1063       O  0.64509870  0.06998050  0.06484649    -0.85090
C1064       C  0.65217013  0.01775849  0.22150625     0.87140
C1065       C  0.62479832  0.08492249  0.23850594     1.08710
H1066       H  0.66859750  0.03503832  0.13333772     0.40510
O1067       O  0.65777236  0.05278053  0.13291003    -1.07750
O1068       O  0.60701011  0.08485387  0.11562275    -0.64400
Ni1069     Ni  0.61692023  0.04532070  0.12840139     1.26350
O1070       O  0.66571446  0.03448887  0.20147154    -0.64630
O1071       O  0.61911196  0.03307316  0.08277176    -0.76920
C1072       C  0.56736003  0.01865638  0.15091765     0.86520
O1073       O  0.57642595  0.03602801  0.12864201    -0.64100
Ni1074     Ni  0.67262229  0.07907766  0.09975347     1.27450
Ni1075     Ni  0.65393335  0.06921408  0.17748992     1.26060
H1076       H  0.60482134  0.07683563  0.17265118     0.41070
O1077       O  0.63922281  0.02754591  0.42327907    -0.78890
O1078       O  0.71150295  0.41889678  0.43150702    -0.63580
O1079       O  0.68828193  0.49682908  0.42269890    -1.10180
C1080       C  0.67834294  0.48361224  0.30935602     1.08000
O1081       O  0.72135791  0.40869323  0.37824798    -0.76790
O1082       O  0.73788104  0.46315100  0.36746485    -0.64370
Ni1083     Ni  0.66765861  0.01735700  0.45501911     1.34870
C1084       C  0.73714528  0.49028336  0.37041866     0.86740
O1085       O  0.71581149  0.46557171  0.46931486    -0.77320
O1086       O  0.69677808  0.50825739  0.48634537    -0.87600
C1087       C  0.72238165  0.40282720  0.40915377     0.86310
O1088       O  0.64505089  0.48708699  0.47255157    -0.65800
O1089       O  0.69932417  0.46682888  0.31489516    -0.85090
C1090       C  0.64717424  0.45998432  0.47162166     0.87140
C1091       C  0.71439090  0.48735424  0.48847912     1.08710
H1092       H  0.66439790  0.44341494  0.38339446     0.40510
O1093       O  0.68213963  0.45424030  0.38297010    -1.07750
O1094       O  0.71421034  0.00501156  0.36561386    -0.64400
Ni1095     Ni  0.67469570  0.49510364  0.37841102     1.26350
O1096       O  0.66378909  0.44639658  0.45150540    -0.64630
O1097       O  0.66245241  0.49287487  0.33277401    -0.76920
C1098       C  0.64801990  0.04466696  0.40091012     0.86520
O1099       O  0.66538210  0.03560918  0.37862693    -0.64100
Ni1100     Ni  0.70842506  0.43934642  0.34985100     1.27450
Ni1101     Ni  0.69854496  0.45810542  0.42756334     1.26060
H1102       H  0.70624267  0.50720653  0.42262611     0.41070
O1103       O  0.76999759  0.07421665  0.66416642    -0.78890
O1104       O  0.82595541  0.44728538  0.66384349    -0.63580
O1105       O  0.80918924  0.02865061  0.65947745    -1.10180
C1106       C  0.77697147  0.99550031  0.55396955     1.08000
O1107       O  0.85213667  0.45536163  0.61921041    -0.76790
O1108       O  0.84629765  0.99579502  0.56990252    -0.64370
Ni1109     Ni  0.78289388  0.04355319  0.69257712     1.34870
C1110       C  0.84417713  0.02289791  0.57083774     0.86740
O1111       O  0.82884539  0.49002058  0.70969560    -0.77320
O1112       O  0.79195886  0.01606142  0.72753962    -0.87600
C1113       C  0.84334120  0.43823789  0.64157806     0.86310
O1114       O  0.75344379  0.01975456  0.67494105    -0.65800
O1115       O  0.79458969  0.47459738  0.55611983    -0.85090
C1116       C  0.75417507  0.49262006  0.67200701     0.87140
C1117       C  0.81292796  0.99926612  0.73309598     1.08710
H1118       H  0.78510771  0.47567564  0.61982070     0.40510
O1119       O  0.80306716  0.48605535  0.61975625    -1.07750
O1120       O  0.82756622  0.03648391  0.59095805    -0.64400
Ni1121     Ni  0.79280130  0.02477625  0.61487611     1.26350
O1122       O  0.77710686  0.47788694  0.67682258    -0.64630
O1123       O  0.77555358  0.01729672  0.57311463    -0.76920
C1124       C  0.76898621  0.08007531  0.63325697     0.86520
O1125       O  0.77984821  0.06398512  0.61091281    -0.64100
Ni1126     Ni  0.82370187  0.46552182  0.58745639     1.27450
Ni1127     Ni  0.81663123  0.48778906  0.66405035     1.26060
H1128       H  0.82693159  0.03947506  0.65905912     0.41070
O1129       O  0.97120963  0.40867005  0.16427436    -0.78890
O1130       O  0.91529937  0.03562998  0.16376617    -0.63580
O1131       O  0.93201875  0.45424682  0.15949373    -1.10180
C1132       C  0.96414402  0.48727408  0.05390757     1.08000
O1133       O  0.88906472  0.02756272  0.11917256    -0.76790
O1134       O  0.89478306  0.48700119  0.07000609    -0.64370
Ni1135     Ni  0.95830554  0.43936132  0.19262894     1.34870
C1136       C  0.89698134  0.45990267  0.07090089     0.86740
O1137       O  0.91236903  0.49292300  0.20964708    -0.77320
O1138       O  0.94923768  0.46688072  0.22754989    -0.87600
C1139       C  0.89790424  0.04468829  0.14151266     0.86310
O1140       O  0.98776838  0.46313469  0.17497564    -0.65800
O1141       O  0.94648581  0.50813955  0.05601076    -0.85090
C1142       C  0.98704883  0.49026543  0.17198474     0.87140
C1143       C  0.92826548  0.48367752  0.23307043     1.08710
H1144       H  0.95608148  0.00720771  0.11974861     0.40510
O1145       O  0.93813133  0.49681427  0.11971203    -1.07750
O1146       O  0.91366756  0.44633697  0.09096401    -0.64400
Ni1147     Ni  0.94841456  0.45808715  0.11489788     1.26350
O1148       O  0.96412228  0.00501327  0.17676180    -0.64630
O1149       O  0.96565631  0.46553778  0.07313808    -0.76920
C1150       C  0.97225417  0.40279849  0.13337198     0.86520
O1151       O  0.96140284  0.41887747  0.11099972    -0.64100
Ni1152     Ni  0.91743953  0.01729677  0.08739437     1.27450
Ni1153     Ni  0.92458908  0.49511780  0.16400968     1.26060
H1154       H  0.91427309  0.44342746  0.15907996     0.41070
O1155       O  0.60192783  0.45516529  0.92338302    -0.78890
O1156       O  0.52969150  0.06388314  0.93144060    -0.63580
O1157       O  0.55287158  0.48592475  0.92271269    -1.10180
C1158       C  0.56292463  0.99911517  0.80939412     1.08000
O1159       O  0.51985139  0.07406443  0.87816708    -0.76790
O1160       O  0.50332465  0.01960389  0.86740370    -0.64370
Ni1161     Ni  0.57345983  0.46539139  0.95506653     1.34870
C1162       C  0.50405080  0.49247345  0.87038540     0.86740
O1163       O  0.52533419  0.01721869  0.96927716    -0.77320
O1164       O  0.54432359  0.47451537  0.98633999    -0.87600
C1165       C  0.51882654  0.07995057  0.90906740     0.86310
O1166       O  0.59606794  0.99566275  0.97260768    -0.65800
O1167       O  0.54193055  0.01589418  0.81488399    -0.85090
C1168       C  0.59398342  0.02276828  0.97162413     0.87140
C1169       C  0.52671538  0.99542790  0.98843770     1.08710
H1170       H  0.57680244  0.03932278  0.88339998     0.40510
O1171       O  0.55905742  0.02850317  0.88296551    -1.07750
O1172       O  0.52698306  0.47773605  0.86560174    -0.64400
Ni1173     Ni  0.56649261  0.48763647  0.87844958     1.26350
O1174       O  0.57738286  0.03635475  0.95148531    -0.64630
O1175       O  0.57878528  0.48985678  0.83284259    -0.76920
C1176       C  0.59315601  0.43806337  0.90098156     0.86520
O1177       O  0.57579543  0.44712917  0.87869493    -0.64100
Ni1178     Ni  0.53279940  0.04339390  0.84980586     1.27450
Ni1179     Ni  0.54262570  0.02466063  0.92753844     1.26060
H1180       H  0.53490621  0.47555542  0.92262447     0.41070
O1181       O  0.95340527  0.09205010  0.41426967    -0.78890
O1182       O  0.82648322  0.03613448  0.41377295    -0.63580
O1183       O  0.90782452  0.05288690  0.40946049    -1.10180
C1184       C  0.87470673  0.08524893  0.30399931     1.08000
O1185       O  0.83452718  0.00998114  0.36910595    -0.76790
O1186       O  0.87501421  0.01581860  0.31989261    -0.64370
Ni1187     Ni  0.92271711  0.07914654  0.44261891     1.34870
C1188       C  0.90210462  0.01797609  0.32081651     0.86740
O1189       O  0.86920396  0.03315942  0.45962523    -0.77320
O1190       O  0.89520455  0.07006209  0.47753425    -0.87600
C1191       C  0.81741901  0.01877664  0.39147976     0.86310
O1192       O  0.89895753  0.10863321  0.42497994    -0.65800
O1193       O  0.85385195  0.06757510  0.30608169    -0.85090
C1194       C  0.87183413  0.10790812  0.42202012     0.87140
C1195       C  0.87843518  0.04906144  0.48305444     1.08710
H1196       H  0.85486105  0.07702073  0.36981647     0.40510
O1197       O  0.86524813  0.05906213  0.36973226    -1.07750
O1198       O  0.91567633  0.03463206  0.34090595    -0.64400
Ni1199     Ni  0.90395332  0.06936175  0.36489875     1.26350
O1200       O  0.85709829  0.08496991  0.42682981    -0.64630
O1201       O  0.89647279  0.08669262  0.32318029    -0.76920
C1202       C  0.95925425  0.09313609  0.38336355     0.86520
O1203       O  0.94314623  0.08234983  0.36098367    -0.64100
Ni1204     Ni  0.84474168  0.03843919  0.33738820     1.27450
Ni1205     Ni  0.86697650  0.04544068  0.41400266     1.26060
H1206       H  0.91864150  0.03514041  0.40900647     0.41070
O1207       O  0.90669420  0.22298822  0.17325810    -0.78890
O1208       O  0.79806072  0.15054282  0.18140170    -0.63580
O1209       O  0.87595068  0.17390651  0.17271598    -1.10180
C1210       C  0.86283012  0.18380626  0.05935934     1.08000
O1211       O  0.78782800  0.14083695  0.12811091    -0.76790
O1212       O  0.84228280  0.12426306  0.11746348    -0.64370
Ni1213     Ni  0.89640463  0.19461071  0.20504367     1.34870
C1214       C  0.86940342  0.12499298  0.12045516     0.86740
O1215       O  0.84471032  0.14628273  0.21925321    -0.77320
O1216       O  0.88722666  0.16556881  0.23644685    -0.87600
C1217       C  0.78197058  0.13973963  0.15901347     0.86310
O1218       O  0.86611035  0.21729190  0.22237009    -0.65800
O1219       O  0.84605935  0.16280814  0.06488212    -0.85090
C1220       C  0.83902700  0.21502980  0.22152849     0.87140
C1221       C  0.86641139  0.14784748  0.23851857     1.08710
H1222       H  0.82257552  0.19776998  0.13337053     0.40510
O1223       O  0.83339569  0.18002490  0.13293889    -1.07750
O1224       O  0.88413901  0.14793235  0.11565700    -0.64400
Ni1225     Ni  0.87424864  0.18747306  0.12842065     1.26350
O1226       O  0.82547281  0.19829494  0.20150880    -0.64630
O1227       O  0.87205037  0.19971747  0.08278395    -0.76920
C1228       C  0.92381374  0.21413590  0.15092740     0.86520
O1229       O  0.91474585  0.19676031  0.12865815    -0.64100
Ni1230     Ni  0.81853012  0.15373949  0.09978480     1.27450
Ni1231     Ni  0.83724606  0.16357667  0.17751772     1.26060
H1232       H  0.88635619  0.15595795  0.17267481     0.41070
O1233       O  0.83453374  0.26000677  0.67323477    -0.78890
O1234       O  0.94312754  0.33242677  0.68148400    -0.63580
O1235       O  0.86524832  0.30908778  0.67268623    -1.10180
C1236       C  0.87848678  0.29915678  0.55936126     1.08000
O1237       O  0.95342537  0.34210295  0.62820193    -0.76790
O1238       O  0.89898285  0.35870044  0.61749350    -0.64370
Ni1239     Ni  0.84475667  0.28841412  0.70500319     1.34870
C1240       C  0.87185969  0.35796962  0.62044869     0.86740
O1241       O  0.89644315  0.33672052  0.71925589    -0.77320
O1242       O  0.85387673  0.31749700  0.73637132    -0.87600
C1243       C  0.95925041  0.34320215  0.65911307     0.86310
O1244       O  0.87503377  0.26576148  0.72243668    -0.65800
O1245       O  0.89523370  0.32016887  0.56490651    -0.85090
C1246       C  0.90212045  0.26797429  0.72157653     0.87140
C1247       C  0.87470184  0.33520546  0.73846151     1.08710
H1248       H  0.91866165  0.28520324  0.63344081     0.40510
O1249       O  0.90784176  0.30294794  0.63298113    -1.07750
O1250       O  0.85712599  0.33503709  0.61560037    -0.64400
Ni1251     Ni  0.86699629  0.29549961  0.62840542     1.26350
O1252       O  0.91569011  0.28468749  0.70154819    -0.64630
O1253       O  0.86924569  0.28324430  0.58277754    -0.76920
C1254       C  0.81742560  0.26883683  0.65087448     0.86520
O1255       O  0.82650031  0.28620323  0.62859473    -0.64100
Ni1256     Ni  0.92274031  0.32922456  0.59983862     1.27450
Ni1257     Ni  0.90394658  0.31940987  0.67754215     1.26060
H1258       H  0.85484587  0.32703779  0.67261292     0.41070
O1259       O  0.78780681  0.39072887  0.91428108    -0.78890
O1260       O  0.91469106  0.44672271  0.91382125    -0.63580
O1261       O  0.83334694  0.42995775  0.90950716    -1.10180
C1262       C  0.86640017  0.39777813  0.80395809     1.08000
O1263       O  0.90663066  0.47293372  0.86920144    -0.76790
O1264       O  0.86609383  0.46720402  0.82003334    -0.64370
Ni1265     Ni  0.81848305  0.40364822  0.94264043     1.34870
C1266       C  0.83900784  0.46498584  0.82090428     0.86740
O1267       O  0.87198304  0.44964979  0.95968512    -0.77320
O1268       O  0.84598793  0.41273224  0.97756917    -0.87600
C1269       C  0.92375531  0.46408937  0.89153681     0.86310
O1270       O  0.84226199  0.37419129  0.92497841    -0.65800
O1271       O  0.88723385  0.41547634  0.80604724    -0.85090
C1272       C  0.86938228  0.37493873  0.92200033     0.87140
C1273       C  0.86275189  0.43373418  0.98310433     1.08710
H1274       H  0.88630851  0.40590109  0.86980343     0.40510
O1275       O  0.87590955  0.42385317  0.86975136    -1.07750
O1276       O  0.82544807  0.44827495  0.84094762    -0.64400
Ni1277     Ni  0.83720658  0.41353563  0.86492186     1.26350
O1278       O  0.88410267  0.39788284  0.92682104    -0.64630
O1279       O  0.84467389  0.39625518  0.82318440    -0.76920
C1280       C  0.78194747  0.38967194  0.88337566     0.86520
O1281       O  0.79802401  0.40052024  0.86100761    -0.64100
Ni1282     Ni  0.89638048  0.44454159  0.83742672     1.27450
Ni1283     Ni  0.87419655  0.43741783  0.91404610     1.26060
H1284       H  0.82252064  0.44769928  0.90907991     0.41070
O1285       O  0.85219876  0.20534015  0.42327628    -0.78890
O1286       O  0.77995038  0.31402377  0.43149254    -0.63580
O1287       O  0.80314573  0.23608143  0.42273824    -1.10180
C1288       C  0.81294603  0.24923065  0.30936310     1.08000
O1289       O  0.77001382  0.32419281  0.37824206    -0.76790
O1290       O  0.75347779  0.26973192  0.36750877    -0.64370
Ni1291     Ni  0.82381527  0.21557791  0.45505270     1.34870
C1292       C  0.75420938  0.24259990  0.37047519     0.86740
O1293       O  0.77568977  0.26738172  0.46935940    -0.77320
O1294       O  0.79476128  0.22472085  0.48642900    -0.87600
C1295       C  0.76903573  0.33007806  0.40914291     0.86310
O1296       O  0.84646717  0.24586308  0.47248933    -0.65800
O1297       O  0.79198517  0.26603511  0.31490904    -0.85090
C1298       C  0.84431720  0.27296426  0.47155137     0.87140
C1299       C  0.77715009  0.24562434  0.48856225     1.08710
H1300       H  0.82698719  0.28946464  0.38333638     0.40510
O1301       O  0.80924180  0.27864390  0.38294995    -1.07750
O1302       O  0.77714183  0.22786465  0.36569233    -0.64400
Ni1303     Ni  0.81667217  0.23777541  0.37842656     1.26350
O1304       O  0.82767784  0.28653567  0.45144296    -0.64630
O1305       O  0.82885708  0.23997041  0.33276958    -0.76920
C1306       C  0.84336288  0.18821241  0.40093616     0.86520
O1307       O  0.82597371  0.19726726  0.37867365    -0.64100
Ni1308     Ni  0.78292084  0.29352924  0.34985398     1.27450
Ni1309     Ni  0.79289495  0.27481158  0.42757100     1.26060
H1310       H  0.78518323  0.22570632  0.42270557     0.41070
O1311       O  0.72141482  0.15875094  0.66412161    -0.78890
O1312       O  0.66536586  0.28563423  0.66374242    -0.63580
O1313       O  0.68218307  0.20428229  0.65939758    -1.10180
C1314       C  0.71450752  0.23748230  0.55396001     1.08000
O1315       O  0.63925024  0.27758081  0.61904426    -0.76790
O1316       O  0.64517274  0.23716843  0.56973277    -0.64370
Ni1317     Ni  0.70847543  0.18939502  0.69251883     1.34870
C1318       C  0.64724886  0.21006255  0.57072096     0.86740
O1319       O  0.66245653  0.24287686  0.70958523    -0.77320
O1320       O  0.69935811  0.21686685  0.72747047    -0.87600
C1321       C  0.64800845  0.29469024  0.64144528     0.86310
O1322       O  0.73791472  0.21322108  0.67490588    -0.65800
O1323       O  0.69690805  0.25839626  0.55608912    -0.85090
C1324       C  0.73716231  0.24035494  0.67196668     0.87140
C1325       C  0.67835340  0.23361981  0.73300689     1.08710
H1326       H  0.70628334  0.25726690  0.61978193     0.40510
O1327       O  0.68832297  0.24688968  0.61968691    -1.07750
O1328       O  0.66382864  0.19647382  0.59088041    -0.64400
Ni1329     Ni  0.69859065  0.20816953  0.61481416     1.26350
O1330       O  0.71421965  0.25506622  0.67679084    -0.64630
O1331       O  0.71586443  0.21565670  0.57307132    -0.76920
C1332       C  0.72242194  0.15288290  0.63321698     0.86520
O1333       O  0.71154276  0.16895923  0.61086293    -0.64100
Ni1334     Ni  0.66773741  0.26744267  0.58735235     1.27450
Ni1335     Ni  0.67471438  0.24513739  0.66395914     1.26060
H1336       H  0.66444820  0.19344585  0.65896632     0.41070
O1337       O  0.65679465  0.47287505  0.67341442    -0.78890
O1338       O  0.54816024  0.40056848  0.68146740    -0.63580
O1339       O  0.62606445  0.42380346  0.67272557    -1.10180
C1340       C  0.61289119  0.43384221  0.55940594     1.08000
O1341       O  0.53792284  0.39082308  0.62818817    -0.76790
O1342       O  0.59236869  0.37425850  0.61745393    -0.64370
Ni1343     Ni  0.64658480  0.44438203  0.70509461     1.34870
C1344       C  0.61949172  0.37498567  0.62041199     0.86740
O1345       O  0.59481357  0.39618767  0.71927166    -0.77320
O1346       O  0.63748085  0.41520529  0.73635581    -0.87600
C1347       C  0.53206608  0.38975745  0.65909401     0.86310
O1348       O  0.61631612  0.46698195  0.72264840    -0.65800
O1349       O  0.59610885  0.41284911  0.56491639    -0.85090
C1350       C  0.58922236  0.46487311  0.72166956     0.87140
C1351       C  0.61659504  0.39756718  0.73843317     1.08710
H1352       H  0.57267946  0.44774883  0.63344474     0.40510
O1353       O  0.58349531  0.43000151  0.63299227    -1.07750
O1354       O  0.63422550  0.39792618  0.61561264    -0.64400
Ni1355     Ni  0.62434290  0.43744722  0.62846213     1.26350
O1356       O  0.57565153  0.44826605  0.70152708    -0.64630
O1357       O  0.62212332  0.44973914  0.58284114    -0.76920
C1358       C  0.67389577  0.46410471  0.65101778     0.86520
O1359       O  0.66483237  0.44676023  0.62870929    -0.64100
Ni1360     Ni  0.56860180  0.40374570  0.59983235     1.27450
Ni1361     Ni  0.58735565  0.41352579  0.67755260     1.26060
H1362       H  0.63643818  0.40583748  0.67262817     0.41070
O1363       O  0.70331676  0.34195790  0.91424374    -0.78890
O1364       O  0.57642905  0.28598661  0.91371664    -0.63580
O1365       O  0.65777075  0.30274261  0.90944974    -1.10180
C1366       C  0.62477269  0.33489776  0.80384866     1.08000
O1367       O  0.58449009  0.25976628  0.86910957    -0.76790
O1368       O  0.62506201  0.26548311  0.81996997    -0.64370
Ni1369     Ni  0.67262814  0.32904991  0.94258286     1.34870
C1370       C  0.65214725  0.26772064  0.82084854     0.86740
O1371       O  0.61911535  0.28306347  0.95961095    -0.77320
O1372       O  0.64510955  0.31998046  0.97749213    -0.87600
C1373       C  0.56736738  0.26861412  0.89144070     0.86310
O1374       O  0.64885929  0.35851038  0.92489981    -0.65800
O1375       O  0.60393288  0.31720577  0.80593226    -0.85090
C1376       C  0.62173814  0.35776991  0.92192237     0.87140
C1377       C  0.62833813  0.29898576  0.98302647     1.08710
H1378       H  0.60482554  0.32679855  0.86969713     0.40510
O1379       O  0.61522325  0.30884558  0.86965997    -1.07750
O1380       O  0.66569564  0.28442332  0.84090793    -0.64400
Ni1381     Ni  0.65392884  0.31916115  0.86485653     1.26350
O1382       O  0.60701290  0.33482420  0.92671581    -0.64630
O1383       O  0.64648238  0.33642989  0.82310306    -0.76920
C1384       C  0.70918673  0.34301528  0.88334319     0.86520
O1385       O  0.69311450  0.33217363  0.86096579    -0.64100
Ni1386     Ni  0.59476586  0.28815079  0.83732664     1.27450
Ni1387     Ni  0.61692062  0.29528742  0.91396343     1.26060
H1388       H  0.66859445  0.28499934  0.90903617     0.41070
O1389       O  0.88915171  0.27755120  0.92328102    -0.78890
O1390       O  0.96143390  0.16887614  0.93143142    -0.63580
O1391       O  0.93820964  0.24681816  0.92266657    -1.10180
C1392       C  0.92823954  0.23365431  0.80934311     1.08000
O1393       O  0.97118148  0.15863837  0.87815404    -0.76790
O1394       O  0.98776317  0.21309729  0.86741126    -0.64370
Ni1395     Ni  0.91760270  0.26734370  0.95499734     1.34870
C1396       C  0.98705415  0.24023075  0.87037054     0.86740
O1397       O  0.96577183  0.21555602  0.96924181    -0.77320
O1398       O  0.94672694  0.25823078  0.98629974    -0.87600
C1399       C  0.97224690  0.15277811  0.90906036     0.86310
O1400       O  0.89499105  0.23706801  0.97252604    -0.65800
O1401       O  0.94920833  0.21685129  0.81486339    -0.85090
C1402       C  0.89711691  0.20996525  0.97159177     0.87140
C1403       C  0.96435394  0.23733827  0.98840767     1.08710
H1404       H  0.91428290  0.19342256  0.88337689     0.40510
O1405       O  0.93203066  0.20423738  0.88293459    -1.07750
O1406       O  0.96413077  0.25498464  0.86558062    -0.64400
Ni1407     Ni  0.92460790  0.24510683  0.87839271     1.26350
O1408       O  0.91373547  0.19638060  0.95147834    -0.64630
O1409       O  0.91234724  0.24289717  0.83276725    -0.76920
C1410       C  0.89793882  0.29467208  0.90090575     0.86520
O1411       O  0.91530970  0.28561883  0.87862713    -0.64100
Ni1412     Ni  0.95828163  0.18933119  0.84978869     1.27450
Ni1413     Ni  0.94847398  0.20809142  0.92750870     1.26060
H1414       H  0.95617002  0.25719633  0.92258783     0.41070
O1415       O  0.51997351  0.32412914  0.16426136    -0.78890
O1416       O  0.57585042  0.19715518  0.16373323    -0.63580
O1417       O  0.55914652  0.27854221  0.15944461    -1.10180
C1418       C  0.52691610  0.24551836  0.05390307     1.08000
O1419       O  0.60204163  0.20521147  0.11910856    -0.76790
O1420       O  0.59630051  0.24577490  0.06995697    -0.64370
Ni1421     Ni  0.53289754  0.29343256  0.19260776     1.34870
C1422       C  0.59410099  0.27287259  0.07083469     0.86740
O1423       O  0.57884755  0.23987023  0.20958433    -0.77320
O1424       O  0.54199601  0.26590894  0.22752437    -0.87600
C1425       C  0.59322155  0.18809071  0.14146504     0.86310
O1426       O  0.50341194  0.26966695  0.17498819    -0.65800
O1427       O  0.54458094  0.22465673  0.05599255    -0.85090
C1428       C  0.50412569  0.24253637  0.17199917     0.87140
C1429       C  0.56297797  0.24911670  0.23302447     1.08710
H1430       H  0.53503048  0.22557870  0.11974899     0.40510
O1431       O  0.55298333  0.23597089  0.11968773    -1.07750
O1432       O  0.57742020  0.28644478  0.09089022    -0.64400
Ni1433     Ni  0.54269886  0.27469979  0.11487276     1.26350
O1434       O  0.52705228  0.22778533  0.17677299    -0.64630
O1435       O  0.52540983  0.26724802  0.07313803    -0.76920
C1436       C  0.51889170  0.32999622  0.13335757     0.86520
O1437       O  0.52971013  0.31391066  0.11097689    -0.64100
Ni1438     Ni  0.57364049  0.21548483  0.08735708     1.27450
Ni1439     Ni  0.56657347  0.23767033  0.16396694     1.26060
H1440       H  0.57689318  0.28935886  0.15900393     0.41070
C1441       C  0.98574611  0.23974681  0.01222512    -0.11270
C1442       C  0.50557444  0.24312327  0.03002380    -0.12830
C1443       C  0.53732512  0.26184337  0.88785406    -0.11270
C1444       C  0.51342600  0.25416852  0.87999423    -0.12830
C1445       C  0.61871262  0.29401036  0.01704692    -0.11270
C1446       C  0.60918781  0.28779017  0.04438491    -0.12830
C1447       C  0.61900595  0.37611625  0.76219980    -0.11270
C1448       C  0.62237258  0.35625099  0.77996419    -0.12830
C1449       C  0.63344590  0.34862057  0.63004739    -0.11270
C1450       C  0.64116738  0.32472883  0.63790428    -0.12830
C1451       C  0.66708000  0.25266551  0.79438960    -0.11270
C1452       C  0.67333416  0.24318512  0.76704176    -0.12830
C1453       C  0.75580317  0.24325298  0.51243863    -0.11270
C1454       C  0.73594173  0.23990436  0.53019446    -0.12830
C1455       C  0.75621038  0.37392294  0.87429419    -0.11270
C1456       C  0.73493083  0.35875955  0.87428125    -0.12830
C1457       C  0.89109314  0.32471104  0.90445113    -0.11270
C1458       C  0.88335212  0.34859136  0.91232789    -0.12830
C1459       C  0.98500713  0.35891566  0.66819003    -0.11270
C1460       C  0.50630860  0.37404579  0.66817341    -0.12830
C1461       C  0.92325946  0.24329991  0.77533029    -0.11270
C1462       C  0.91703091  0.25285661  0.74800832    -0.12830
C1463       C  0.86882957  0.37641561  0.78009603    -0.11270
C1464       C  0.87224778  0.35658376  0.76230178    -0.12830
C1465       C  0.78738483  0.26205194  0.65443955    -0.11270
C1466       C  0.76350151  0.25434209  0.66231665    -0.12830
C1467       C  0.86890576  0.29414942  0.52532932    -0.11270
C1468       C  0.85940472  0.28789665  0.49798964    -0.12830
C1469       C  0.82411207  0.23010253  0.24798759    -0.11270
C1470       C  0.81790158  0.23961693  0.27533331    -0.12830
C1471       C  0.95385720  0.22091357  0.15450492    -0.11270
C1472       C  0.97775458  0.22859698  0.16236612    -0.12830
C1473       C  0.87246357  0.18880097  0.02534537    -0.11270
C1474       C  0.88200737  0.19504451  0.99802327    -0.12830
C1475       C  0.85788238  0.13427372  0.41237446    -0.11270
C1476       C  0.85017176  0.15816700  0.40450490    -0.12830
C1477       C  0.87226308  0.10666604  0.28019861    -0.11270
C1478       C  0.86884133  0.12650316  0.26240761    -0.12830
C1479       C  0.98796490  0.12701286  0.91813541    -0.11270
C1480       C  0.50310273  0.10571159  0.91813535    -0.12830
C1481       C  0.97769201  0.47852273  0.88004040    -0.11270
C1482       C  0.95380041  0.47084682  0.88793230    -0.12830
C1483       C  0.60777038  0.38413282  0.91230058    -0.11270
C1484       C  0.60002404  0.40802603  0.90448029    -0.12830
C1485       C  0.56798039  0.48951639  0.77538261    -0.11270
C1486       C  0.57428146  0.47998585  0.74807524    -0.12830
C1487       C  0.50314766  0.35575282  0.12429719    -0.11270
C1488       C  0.98799208  0.37704351  0.12430177    -0.12830
C1489       C  0.87236281  0.43872914  0.01712986    -0.11270
C1490       C  0.88188713  0.44497300  0.04446282    -0.12830
C1491       C  0.89107805  0.07473341  0.13796371    -0.11270
C1492       C  0.88335569  0.09862703  0.13010645    -0.12830
C1493       C  0.92327662  0.49330924  0.26708403    -0.11270
C1494       C  0.91702701  0.00285929  0.29439886    -0.12830
C1495       C  0.50531435  0.49303657  0.01223814    -0.11270
C1496       C  0.98547725  0.48967227  0.03002312    -0.12830
C1497       C  0.73814110  0.12713048  0.62412547    -0.11270
C1498       C  0.75327722  0.10583101  0.62414228    -0.12830
C1499       C  0.70392751  0.47093461  0.65455553    -0.11430
C1500       C  0.72781767  0.47865220  0.66239261    -0.12830
C1501       C  0.85928018  0.03781598  0.54439896    -0.11270
C1502       C  0.86881381  0.04405795  0.51707142    -0.12830
C1503       C  0.85017535  0.40819951  0.63802081    -0.11270
C1504       C  0.85790352  0.38431952  0.63013070    -0.12830
C1505       C  0.81787968  0.48963540  0.76712562    -0.11270
C1506       C  0.82409192  0.48009075  0.79446135    -0.12830
C1507       C  0.73813018  0.37709226  0.41824997    -0.11270
C1508       C  0.75329878  0.35581651  0.41824297    -0.12830
C1509       C  0.63206779  0.44507148  0.49806345    -0.11270
C1510       C  0.62252595  0.43884066  0.52539154    -0.12830
C1511       C  0.76349761  0.00425068  0.38005820    -0.11270
C1512       C  0.78738386  0.01196381  0.38792113    -0.12830
C1513       C  0.75560382  0.49309528  0.53012077    -0.11270
C1514       C  0.73576647  0.48974400  0.51232508    -0.12830
C1515       C  0.75621910  0.12399300  0.16806173    -0.11270
C1516       C  0.73493401  0.10883297  0.16804797    -0.12830
C1517       C  0.60004610  0.15804608  0.13792396    -0.11270
C1518       C  0.60777284  0.13415666  0.13006496    -0.12830
C1519       C  0.67334151  0.49320183  0.27532122    -0.11270
C1520       C  0.66710066  0.00269784  0.24797191    -0.12830
C1521       C  0.53731606  0.01188439  0.15449375    -0.11270
C1522       C  0.51341661  0.00420656  0.16234890    -0.12830
C1523       C  0.60912460  0.03769928  0.99802315    -0.11270
C1524       C  0.61868918  0.04396564  0.02532878    -0.12830
C1525       C  0.50633263  0.12396316  0.37430155    -0.11270
C1526       C  0.98502252  0.10884198  0.37429926    -0.12830
C1527       C  0.56801018  0.23948807  0.26703324    -0.11270
C1528       C  0.57429617  0.22993490  0.29433896    -0.12830
C1529       C  0.64121166  0.07471022  0.40447679    -0.11270
C1530       C  0.63349867  0.09859606  0.41236211    -0.12830
C1531       C  0.62240236  0.10624669  0.26241603    -0.11270
C1532       C  0.61902844  0.12608247  0.28021419    -0.12830
C1533       C  0.72784785  0.22863509  0.38007813    -0.11270
C1534       C  0.70395479  0.22091145  0.38789174    -0.12830
C1535       C  0.62256359  0.18886519  0.51700348    -0.11270
C1536       C  0.63212080  0.19513402  0.54431110    -0.12830
O1537       O  0.53796226  0.64075952  0.41426411    -0.78890
O1538       O  0.66485803  0.69672260  0.41371074    -0.63580
O1539       O  0.58352457  0.67994618  0.40942043    -1.10180
C1540       C  0.61661667  0.64751129  0.30399759     1.08000
O1541       O  0.65682887  0.72283014  0.36899119    -0.76790
O1542       O  0.61632802  0.71693741  0.31978409    -0.64370
Ni1543     Ni  0.56864946  0.65369606  0.44260320     1.34870
C1544       C  0.58923549  0.71481030  0.32074459     0.86740
O1545       O  0.62214421  0.69972314  0.45954973    -0.77320
O1546       O  0.59616688  0.66281871  0.47750699    -0.87600
C1547       C  0.67392464  0.71406589  0.39140205     0.86310
O1548       O  0.59241736  0.62421167  0.42498921    -0.65800
O1549       O  0.63748947  0.66516488  0.30606621    -0.85090
C1550       C  0.61953883  0.62494913  0.42202292     0.87140
C1551       C  0.61292783  0.68383253  0.48299856     1.08710
H1552       H  0.63647787  0.65578816  0.36980519     0.40510
O1553       O  0.62609490  0.67374887  0.36969697    -1.07750
O1554       O  0.57566782  0.69818054  0.34086759    -0.64400
Ni1555     Ni  0.58738623  0.66345339  0.36487569     1.26350
O1556       O  0.63426453  0.64789305  0.42682843    -0.64630
O1557       O  0.59484803  0.64610451  0.32317165    -0.76920
C1558       C  0.53209888  0.63967606  0.38335961     0.86520
O1559       O  0.54819103  0.65047453  0.36097378    -0.64100
Ni1560     Ni  0.64660434  0.69433493  0.33732314     1.27450
Ni1561     Ni  0.62437015  0.68740643  0.41394750     1.26060
H1562       H  0.57270200  0.69768907  0.40895348     0.41070
O1563       O  0.58448236  0.50980300  0.17325066    -0.78890
O1564       O  0.69311802  0.58224242  0.18137026    -0.63580
O1565       O  0.61522648  0.55888694  0.17269413    -1.10180
C1566       C  0.62832915  0.54897822  0.05933715     1.08000
O1567       O  0.70331536  0.59200879  0.12808575    -0.76790
O1568       O  0.64885373  0.60854349  0.11741388    -0.64370
Ni1569     Ni  0.59478411  0.53817709  0.20503096     1.34870
C1570       C  0.62173508  0.60779995  0.12041194     0.86740
O1571       O  0.64648749  0.58649136  0.21922931    -0.77320
O1572       O  0.60397315  0.56721285  0.23643245    -0.87600
C1573       C  0.70918800  0.59308078  0.15898766     0.86310
O1574       O  0.62508624  0.51549473  0.22235653    -0.65800
O1575       O  0.64509890  0.56998096  0.06484620    -0.85090
C1576       C  0.65216968  0.51775844  0.22150594     0.87140
C1577       C  0.62479808  0.58492246  0.23850560     1.08710
H1578       H  0.66859738  0.53503839  0.13333726     0.40510
O1579       O  0.65777229  0.55278063  0.13290964    -1.07750
O1580       O  0.60701013  0.58485415  0.11562236    -0.64400
Ni1581     Ni  0.61692011  0.54532094  0.12840083     1.26350
O1582       O  0.66571415  0.53448868  0.20147119    -0.64630
O1583       O  0.61911186  0.53307364  0.08277104    -0.76920
C1584       C  0.56735990  0.51865681  0.15091722     0.86520
O1585       O  0.57642578  0.53602833  0.12864143    -0.64100
Ni1586     Ni  0.67262237  0.57907787  0.09975331     1.27450
Ni1587     Ni  0.65393326  0.56921402  0.17748964     1.26060
H1588       H  0.60482133  0.57683579  0.17265076     0.41070
O1589       O  0.63922587  0.52754629  0.42328238    -0.78890
O1590       O  0.71150508  0.91889817  0.43150748    -0.63580
O1591       O  0.68827945  0.99682928  0.42269971    -1.10180
C1592       C  0.67834362  0.98361234  0.30935618     1.08000
O1593       O  0.72135600  0.90869228  0.37824804    -0.76790
O1594       O  0.73788046  0.96315010  0.36746641    -0.64370
Ni1595     Ni  0.66766470  0.51735884  0.45501934     1.34870
C1596       C  0.73714495  0.99028246  0.37042060     0.86740
O1597       O  0.71581057  0.96557347  0.46931510    -0.77320
O1598       O  0.69676871  0.00825442  0.48634902    -0.87600
C1599       C  0.72238180  0.90282746  0.40915402     0.86310
O1600       O  0.64504309  0.98708409  0.47254562    -0.65800
O1601       O  0.69932491  0.96682924  0.31489582    -0.85090
C1602       C  0.64717127  0.95998172  0.47161957     0.87140
C1603       C  0.71438466  0.98735385  0.48848210     1.08710
H1604       H  0.66439728  0.94341477  0.38339537     0.40510
O1605       O  0.68213898  0.95424018  0.38297070    -1.07750
O1606       O  0.71421049  0.50501211  0.36561186    -0.64400
Ni1607     Ni  0.67469497  0.99510352  0.37841118     1.26350
O1608       O  0.66379004  0.94639482  0.45150694    -0.64630
O1609       O  0.66245269  0.99287473  0.33277384    -0.76920
C1610       C  0.64802092  0.54466691  0.40091185     0.86520
O1611       O  0.66538220  0.53560918  0.37862758    -0.64100
Ni1612     Ni  0.70842438  0.93934620  0.34985153     1.27450
Ni1613     Ni  0.69854455  0.95810607  0.42756383     1.26060
H1614       H  0.70623949  0.00720799  0.42262807     0.41070
O1615       O  0.76999880  0.57421700  0.66416625    -0.78890
O1616       O  0.82595492  0.94728541  0.66384165    -0.63580
O1617       O  0.80918970  0.52865052  0.65947754    -1.10180
C1618       C  0.77697722  0.49549968  0.55396750     1.08000
O1619       O  0.85213379  0.95536126  0.61920636    -0.76790
O1620       O  0.84630397  0.49579661  0.56990782    -0.64370
Ni1621     Ni  0.78289418  0.54355327  0.69257699     1.34870
C1622       C  0.84417978  0.52289929  0.57084003     0.86740
O1623       O  0.82884561  0.99002019  0.70969452    -0.77320
O1624       O  0.79195811  0.51606135  0.72753972    -0.87600
C1625       C  0.84333986  0.93823789  0.64157526     0.86310
O1626       O  0.75344421  0.51975489  0.67494025    -0.65800
O1627       O  0.79458186  0.97459623  0.55612170    -0.85090
C1628       C  0.75417469  0.99261973  0.67200790     0.87140
C1629       C  0.81292731  0.49926637  0.73309666     1.08710
H1630       H  0.78510493  0.97567723  0.61982138     0.40510
O1631       O  0.80306493  0.98605594  0.61975603    -1.07750
O1632       O  0.82756599  0.53648469  0.59095764    -0.64400
Ni1633     Ni  0.79280190  0.52477525  0.61487612     1.26350
O1634       O  0.77710657  0.97788675  0.67682329    -0.64630
O1635       O  0.77555506  0.51729456  0.57311453    -0.76920
C1636       C  0.76898611  0.58007464  0.63325662     0.86520
O1637       O  0.77984681  0.56398355  0.61091245    -0.64100
Ni1638     Ni  0.82369663  0.96552101  0.58745500     1.27450
Ni1639     Ni  0.81663051  0.98778906  0.66404954     1.26060
H1640       H  0.82693197  0.53947509  0.65905903     0.41070
O1641       O  0.97120796  0.90866920  0.16427431    -0.78890
O1642       O  0.91529940  0.53562997  0.16376566    -0.63580
O1643       O  0.93201818  0.95424671  0.15949317    -1.10180
C1644       C  0.96413862  0.98727369  0.05390495     1.08000
O1645       O  0.88906733  0.52756303  0.11916973    -0.76790
O1646       O  0.89477626  0.98699863  0.07001133    -0.64370
Ni1647     Ni  0.95830493  0.93936112  0.19262846     1.34870
C1648       C  0.89697878  0.95990039  0.07090270     0.86740
O1649       O  0.91236928  0.99292290  0.20964718    -0.77320
O1650       O  0.94923829  0.96688102  0.22754929    -0.87600
C1651       C  0.89790507  0.54468822  0.14151120     0.86310
O1652       O  0.98776788  0.96313387  0.17497430    -0.65800
O1653       O  0.94647765  0.00813686  0.05600753    -0.85090
C1654       C  0.98704856  0.99026462  0.17198308     0.87140
C1655       C  0.92826606  0.98367761  0.23307024     1.08710
H1656       H  0.95608421  0.50720644  0.11975035     0.40510
O1657       O  0.93812920  0.99681444  0.11971128    -1.07750
O1658       O  0.91366845  0.94633543  0.09096260    -0.64400
Ni1659     Ni  0.94841424  0.95808771  0.11489744     1.26350
O1660       O  0.96412238  0.50501376  0.17676356    -0.64630
O1661       O  0.96565557  0.96553930  0.07313787    -0.76920
C1662       C  0.97225431  0.90279870  0.13337177     0.86520
O1663       O  0.96140473  0.91887867  0.11099931    -0.64100
Ni1664     Ni  0.91744480  0.51729840  0.08739421     1.27450
Ni1665     Ni  0.92458847  0.99511771  0.16400950     1.26060
H1666       H  0.91427255  0.94342732  0.15907912     0.41070
O1667       O  0.60192535  0.95516495  0.92338655    -0.78890
O1668       O  0.52969028  0.56388178  0.93144087    -0.63580
O1669       O  0.55286968  0.98592525  0.92271290    -1.10180
C1670       C  0.56292406  0.49911539  0.80939350     1.08000
O1671       O  0.51985240  0.57406473  0.87816720    -0.76790
O1672       O  0.50332498  0.51960419  0.86740435    -0.64370
Ni1673     Ni  0.57345532  0.96539069  0.95506776     1.34870
C1674       C  0.50405050  0.99247316  0.87038467     0.86740
O1675       O  0.52533548  0.51721684  0.96927723    -0.77320
O1676       O  0.54431683  0.97451437  0.98633838    -0.87600
C1677       C  0.51882643  0.57995000  0.90906768     0.86310
O1678       O  0.59607339  0.49566413  0.97260307    -0.65800
O1679       O  0.54192989  0.51589413  0.81488387    -0.85090
C1680       C  0.59398572  0.52276948  0.97162210     0.87140
C1681       C  0.52672035  0.49542738  0.98843948     1.08710
H1682       H  0.57680275  0.53932280  0.88340001     0.40510
O1683       O  0.55905778  0.52850309  0.88296541    -1.07750
O1684       O  0.52698284  0.97773588  0.86560116    -0.64400
Ni1685     Ni  0.56649201  0.98763647  0.87845031     1.26350
O1686       O  0.57738266  0.53635543  0.95148561    -0.64630
O1687       O  0.57878550  0.98985645  0.83284354    -0.76920
C1688       C  0.59315487  0.93806335  0.90098401     0.86520
O1689       O  0.57579503  0.94712919  0.87869655    -0.64100
Ni1690     Ni  0.53279963  0.54339398  0.84980594     1.27450
Ni1691     Ni  0.54262620  0.52465977  0.92753840     1.26060
H1692       H  0.53490383  0.97555678  0.92262390     0.41070
O1693       O  0.95340531  0.59205017  0.41426966    -0.78890
O1694       O  0.82648306  0.53613482  0.41377347    -0.63580
O1695       O  0.90782447  0.55288703  0.40946087    -1.10180
C1696       C  0.87470655  0.58524890  0.30399962     1.08000
O1697       O  0.83452729  0.50998143  0.36910663    -0.76790
O1698       O  0.87501384  0.51581873  0.31989294    -0.64370
Ni1699     Ni  0.92271721  0.57914680  0.44261905     1.34870
C1700       C  0.90210425  0.51797605  0.32081682     0.86740
O1701       O  0.86920386  0.53315997  0.45962596    -0.77320
O1702       O  0.89520477  0.57006262  0.47753452    -0.87600
C1703       C  0.81741893  0.51877709  0.39148011     0.86310
O1704       O  0.89895763  0.60863341  0.42497998    -0.65800
O1705       O  0.85385164  0.56757523  0.30608216    -0.85090
C1706       C  0.87183421  0.60790836  0.42202028     0.87140
C1707       C  0.87843534  0.54906209  0.48305501     1.08710
H1708       H  0.85486107  0.57702089  0.36981685     0.40510
O1709       O  0.86524807  0.55906225  0.36973269    -1.07750
O1710       O  0.91567608  0.53463187  0.34090632    -0.64400
Ni1711     Ni  0.90395327  0.56936170  0.36489901     1.26350
O1712       O  0.85709833  0.58497022  0.42683015    -0.64630
O1713       O  0.89647271  0.58669246  0.32318047    -0.76920
C1714       C  0.95925425  0.59313600  0.38336354     0.86520
O1715       O  0.94314621  0.58234963  0.36098375    -0.64100
Ni1716     Ni  0.84474148  0.53843936  0.33738874     1.27450
Ni1717     Ni  0.86697641  0.54544094  0.41400321     1.26060
H1718       H  0.91864140  0.53514050  0.40900694     0.41070
O1719       O  0.90669427  0.72298796  0.17325808    -0.78890
O1720       O  0.79806072  0.65054259  0.18140175    -0.63580
O1721       O  0.87595066  0.67390630  0.17271600    -1.10180
C1722       C  0.86283006  0.68380615  0.05935936     1.08000
O1723       O  0.78782778  0.64083707  0.12811093    -0.76790
O1724       O  0.84228250  0.62426299  0.11746336    -0.64370
Ni1725     Ni  0.89640460  0.69461052  0.20504369     1.34870
C1726       C  0.86940313  0.62499281  0.12045500     0.86740
O1727       O  0.84471034  0.64628242  0.21925317    -0.77320
O1728       O  0.88722656  0.66556868  0.23644694    -0.87600
C1729       C  0.78197048  0.63973957  0.15901352     0.86310
O1730       O  0.86611034  0.71729181  0.22237000    -0.65800
O1731       O  0.84605915  0.66280814  0.06488212    -0.85090
C1732       C  0.83902699  0.71502962  0.22152852     0.87140
C1733       C  0.86641135  0.64784728  0.23851861     1.08710
H1734       H  0.82257553  0.69776993  0.13337070     0.40510
O1735       O  0.83339565  0.68002481  0.13293897    -1.07750
O1736       O  0.88413880  0.64793214  0.11565697    -0.64400
Ni1737     Ni  0.87424862  0.68747287  0.12842068     1.26350
O1738       O  0.82547279  0.69829467  0.20150895    -0.64630
O1739       O  0.87205036  0.69971731  0.08278399    -0.76920
C1740       C  0.92381379  0.71413561  0.15092738     0.86520
O1741       O  0.91474587  0.69676001  0.12865816    -0.64100
Ni1742     Ni  0.81852992  0.65373955  0.09978482     1.27450
Ni1743     Ni  0.83724605  0.66357646  0.17751774     1.26060
H1744       H  0.88635618  0.65595774  0.17267481     0.41070
O1745       O  0.83453382  0.76000668  0.67323480    -0.78890
O1746       O  0.94312764  0.83242636  0.68148424    -0.63580
O1747       O  0.86524839  0.80908770  0.67268620    -1.10180
C1748       C  0.87848705  0.79915660  0.55936122     1.08000
O1749       O  0.95342533  0.84210314  0.62820230    -0.76790
O1750       O  0.89898286  0.85870038  0.61749320    -0.64370
Ni1751     Ni  0.84475663  0.78841412  0.70500316     1.34870
C1752       C  0.87185968  0.85796955  0.62044817     0.86740
O1753       O  0.89644328  0.83672019  0.71925604    -0.77320
O1754       O  0.85387659  0.81749709  0.73637119    -0.87600
C1755       C  0.95925040  0.84320208  0.65911345     0.86310
O1756       O  0.87503367  0.76576153  0.72243696    -0.65800
O1757       O  0.89523417  0.82016855  0.56490645    -0.85090
C1758       C  0.90212037  0.76797409  0.72157665     0.87140
C1759       C  0.87470185  0.83520536  0.73846150     1.08710
H1760       H  0.91866172  0.78520312  0.63344081     0.40510
O1761       O  0.90784185  0.80294783  0.63298117    -1.07750
O1762       O  0.85712603  0.83503693  0.61560021    -0.64400
Ni1763     Ni  0.86699638  0.79549950  0.62840539     1.26350
O1764       O  0.91569006  0.78468711  0.70154814    -0.64630
O1765       O  0.86924580  0.78324420  0.58277751    -0.76920
C1766       C  0.81742570  0.76883665  0.65087446     0.86520
O1767       O  0.82650040  0.78620305  0.62859470    -0.64100
Ni1768     Ni  0.92274052  0.82922447  0.59983876     1.27450
Ni1769     Ni  0.90394667  0.81940962  0.67754225     1.26060
H1770       H  0.85484602  0.82703775  0.67261283     0.41070
O1771       O  0.78780662  0.89072869  0.91428045    -0.78890
O1772       O  0.91469102  0.94672234  0.91382147    -0.63580
O1773       O  0.83334686  0.92995743  0.90950704    -1.10180
C1774       C  0.86640046  0.89777814  0.80395796     1.08000
O1775       O  0.90663049  0.97293351  0.86920181    -0.76790
O1776       O  0.86609419  0.96720382  0.82003319    -0.64370
Ni1777     Ni  0.81848286  0.90364765  0.94263995     1.34870
C1778       C  0.83900820  0.96498569  0.82090395     0.86740
O1779       O  0.87198292  0.94964889  0.95968551    -0.77320
O1780       O  0.84598770  0.91273116  0.97756883    -0.87600
C1781       C  0.92375522  0.96408908  0.89153706     0.86310
O1782       O  0.84226178  0.87419085  0.92497761    -0.65800
O1783       O  0.88723427  0.91547618  0.80604735    -0.85090
C1784       C  0.86938209  0.87493825  0.92199980     0.87140
C1785       C  0.86275166  0.93373298  0.98310442     1.08710
H1786       H  0.88630844  0.90590092  0.86980332     0.40510
O1787       O  0.87590953  0.92385303  0.86975134    -1.07750
O1788       O  0.82544827  0.94827501  0.84094740    -0.64400
Ni1789     Ni  0.83720659  0.91353557  0.86492159     1.26350
O1790       O  0.88410252  0.89788230  0.92682078    -0.64630
O1791       O  0.84467403  0.89625531  0.82318406    -0.76920
C1792       C  0.78194736  0.88967191  0.88337502     0.86520
O1793       O  0.79802400  0.90052024  0.86100708    -0.64100
Ni1794     Ni  0.89638068  0.94454143  0.83742692     1.27450
Ni1795     Ni  0.87419649  0.93741741  0.91404623     1.26060
H1796       H  0.82252058  0.94769897  0.90907991     0.41070
O1797       O  0.85219881  0.70534030  0.42327627    -0.78890
O1798       O  0.77995064  0.81402396  0.43149252    -0.63580
O1799       O  0.80314576  0.73608153  0.42273823    -1.10180
C1800       C  0.81294599  0.74923061  0.30936309     1.08000
O1801       O  0.77001380  0.82419283  0.37824206    -0.76790
O1802       O  0.75347777  0.76973187  0.36750889    -0.64370
Ni1803     Ni  0.82381527  0.71557795  0.45505265     1.34870
C1804       C  0.75420939  0.74259984  0.37047528     0.86740
O1805       O  0.77568997  0.76738190  0.46935949    -0.77320
O1806       O  0.79476123  0.72472084  0.48642889    -0.87600
C1807       C  0.76903590  0.83007821  0.40914290     0.86310
O1808       O  0.84646712  0.74586308  0.47248944    -0.65800
O1809       O  0.79198509  0.76603504  0.31490904    -0.85090
C1810       C  0.84431733  0.77296426  0.47155135     0.87140
C1811       C  0.77715015  0.74562442  0.48856223     1.08710
H1812       H  0.82698720  0.78946471  0.38333623     0.40510
O1813       O  0.80924182  0.77864396  0.38294989    -1.07750
O1814       O  0.77714186  0.72786465  0.36569234    -0.64400
Ni1815     Ni  0.81667219  0.73777547  0.37842654     1.26350
O1816       O  0.82767808  0.78653570  0.45144284    -0.64630
O1817       O  0.82885708  0.73997044  0.33276956    -0.76920
C1818       C  0.84336296  0.68821254  0.40093615     0.86520
O1819       O  0.82597375  0.69726735  0.37867365    -0.64100
Ni1820     Ni  0.78292077  0.79352921  0.34985397     1.27450
Ni1821     Ni  0.79289509  0.77481171  0.42757101     1.26060
H1822       H  0.78518323  0.72570647  0.42270557     0.41070
O1823       O  0.72141499  0.65875047  0.66412140    -0.78890
O1824       O  0.66536597  0.78563371  0.66374256    -0.63580
O1825       O  0.68218324  0.70428183  0.65939750    -1.10180
C1826       C  0.71450759  0.73748210  0.55395998     1.08000
O1827       O  0.63925030  0.77758036  0.61904443    -0.76790
O1828       O  0.64517284  0.73716811  0.56973280    -0.64370
Ni1829     Ni  0.70847563  0.68939455  0.69251872     1.34870
C1830       C  0.64724895  0.71006224  0.57072092     0.86740
O1831       O  0.66245665  0.74287630  0.70958523    -0.77320
O1832       O  0.69935827  0.71686636  0.72747044    -0.87600
C1833       C  0.64800849  0.79468973  0.64144551     0.86310
O1834       O  0.73791490  0.71322065  0.67490577    -0.65800
O1835       O  0.69690811  0.75839603  0.55608919    -0.85090
C1836       C  0.73716246  0.74035452  0.67196663     0.87140
C1837       C  0.67835354  0.73361930  0.73300688     1.08710
H1838       H  0.70628346  0.75726652  0.61978196     0.40510
O1839       O  0.68832309  0.74688929  0.61968693    -1.07750
O1840       O  0.66382876  0.69647347  0.59088032    -0.64400
Ni1841     Ni  0.69859078  0.70816915  0.61481406     1.26350
O1842       O  0.71421978  0.75506576  0.67679087    -0.64630
O1843       O  0.71586454  0.71565643  0.57307121    -0.76920
C1844       C  0.72242204  0.65288243  0.63321675     0.86520
O1845       O  0.71154289  0.66895883  0.61086274    -0.64100
Ni1846     Ni  0.66773747  0.76744234  0.58735246     1.27450
Ni1847     Ni  0.67471453  0.74513691  0.66395915     1.26060
H1848       H  0.66444838  0.69344537  0.65896624     0.41070
O1849       O  0.65679439  0.97287483  0.67341398    -0.78890
O1850       O  0.54816020  0.90056848  0.68146797    -0.63580
O1851       O  0.62606439  0.92380332  0.67272559    -1.10180
C1852       C  0.61289093  0.93384080  0.55940581     1.08000
O1853       O  0.53792264  0.89082281  0.62818886    -0.76790
O1854       O  0.59236847  0.87425796  0.61745483    -0.64370
Ni1855     Ni  0.64658495  0.94438190  0.70509438     1.34870
C1856       C  0.61949153  0.87498510  0.62041262     0.86740
O1857       O  0.59481366  0.89618786  0.71927207    -0.77320
O1858       O  0.63748126  0.91520517  0.73635569    -0.87600
C1859       C  0.53206594  0.88975738  0.65909471     0.86310
O1860       O  0.61631642  0.96698175  0.72264854    -0.65800
O1861       O  0.59610859  0.91284782  0.56491677    -0.85090
C1862       C  0.58922265  0.96487300  0.72166984     0.87140
C1863       C  0.61659532  0.89756723  0.73843333     1.08710
H1864       H  0.57267936  0.94774843  0.63344467     0.40510
O1865       O  0.58349521  0.93000111  0.63299237    -1.07750
O1866       O  0.63422533  0.89792556  0.61561297    -0.64400
Ni1867     Ni  0.62434281  0.93744672  0.62846196     1.26350
O1868       O  0.57565168  0.94826615  0.70152723    -0.64630
O1869       O  0.62212319  0.94973807  0.58284067    -0.76920
C1870       C  0.67389561  0.96410441  0.65101752     0.86520
O1871       O  0.66483230  0.94675982  0.62870906    -0.64100
Ni1872     Ni  0.56860159  0.90374499  0.59983287     1.27450
Ni1873     Ni  0.58735562  0.91352573  0.67755289     1.26060
H1874       H  0.63643806  0.90583730  0.67262831     0.41070
O1875       O  0.70331673  0.84195806  0.91424339    -0.78890
O1876       O  0.57642914  0.78598645  0.91371662    -0.63580
O1877       O  0.65777085  0.80274250  0.90944968    -1.10180
C1878       C  0.62477275  0.83489765  0.80384864     1.08000
O1879       O  0.58449017  0.75976618  0.86910949    -0.76790
O1880       O  0.62506195  0.76548312  0.81996967    -0.64370
Ni1881     Ni  0.67262834  0.82904982  0.94258272     1.34870
C1882       C  0.65214721  0.76772042  0.82084841     0.86740
O1883       O  0.61911545  0.78306337  0.95961095    -0.77320
O1884       O  0.64510998  0.81998014  0.97749216    -0.87600
C1885       C  0.56736747  0.76861396  0.89144066     0.86310
O1886       O  0.64885930  0.85851031  0.92490006    -0.65800
O1887       O  0.60393281  0.81720583  0.80593232    -0.85090
C1888       C  0.62173814  0.85776983  0.92192280     0.87140
C1889       C  0.62833837  0.79898558  0.98302648     1.08710
H1890       H  0.60482571  0.82679850  0.86969717     0.40510
O1891       O  0.61522334  0.80884548  0.86965995    -1.07750
O1892       O  0.66569563  0.78442294  0.84090795    -0.64400
Ni1893     Ni  0.65392896  0.81916090  0.86485642     1.26350
O1894       O  0.60701294  0.83482404  0.92671590    -0.64630
O1895       O  0.64648255  0.83642956  0.82310289    -0.76920
C1896       C  0.70918674  0.84301520  0.88334283     0.86520
O1897       O  0.69311463  0.83217323  0.86096556    -0.64100
Ni1898     Ni  0.59476586  0.78815077  0.83732661     1.27450
Ni1899     Ni  0.61692072  0.79528730  0.91396342     1.26060
H1900       H  0.66859453  0.78499921  0.90903616     0.41070
O1901       O  0.88915174  0.77755082  0.92328088    -0.78890
O1902       O  0.96143402  0.66887581  0.93143158    -0.63580
O1903       O  0.93820973  0.74681784  0.92266656    -1.10180
C1904       C  0.92823963  0.73365388  0.80934311     1.08000
O1905       O  0.97118161  0.65863798  0.87815422    -0.76790
O1906       O  0.98776331  0.71309693  0.86741135    -0.64370
Ni1907     Ni  0.91760273  0.76734341  0.95499725     1.34870
C1908       C  0.98705427  0.74023040  0.87037058     0.86740
O1909       O  0.96577191  0.71555580  0.96924191    -0.77320
O1910       O  0.94672695  0.75823058  0.98629969    -0.87600
C1911       C  0.97224698  0.65277772  0.90906055     0.86310
O1912       O  0.89499110  0.73706774  0.97252600    -0.65800
O1913       O  0.94920845  0.71685088  0.81486341    -0.85090
C1914       C  0.89711698  0.70996498  0.97159180     0.87140
C1915       C  0.96435398  0.73733810  0.98840770     1.08710
H1916       H  0.91428305  0.69342216  0.88337697     0.40510
O1917       O  0.93203080  0.70423700  0.88293467    -1.07750
O1918       O  0.96413088  0.75498426  0.86558061    -0.64400
Ni1919     Ni  0.92460801  0.74510642  0.87839271     1.26350
O1920       O  0.91373557  0.69638031  0.95147843    -0.64630
O1921       O  0.91234732  0.74289671  0.83276726    -0.76920
C1922       C  0.89793884  0.79467165  0.90090556     0.86520
O1923       O  0.91530979  0.78561840  0.87862702    -0.64100
Ni1924     Ni  0.95828178  0.68933079  0.84978879     1.27450
Ni1925     Ni  0.94847409  0.70809110  0.92750878     1.26060
H1926       H  0.95617010  0.75719602  0.92258782     0.41070
O1927       O  0.51997348  0.82412914  0.16426138    -0.78890
O1928       O  0.57585045  0.69715524  0.16373321    -0.63580
O1929       O  0.55914654  0.77854224  0.15944467    -1.10180
C1930       C  0.52691613  0.74551843  0.05390310     1.08000
O1931       O  0.60204165  0.70521160  0.11910856    -0.76790
O1932       O  0.59630043  0.74577487  0.06995684    -0.64370
Ni1933     Ni  0.53289749  0.79343251  0.19260778     1.34870
C1934       C  0.59410108  0.77287257  0.07083469     0.86740
O1935       O  0.57884756  0.73987023  0.20958435    -0.77320
O1936       O  0.54199596  0.76590886  0.22752439    -0.87600
C1937       C  0.59322161  0.68809082  0.14146503     0.86310
O1938       O  0.50341192  0.76966689  0.17498811    -0.65800
O1939       O  0.54458085  0.72465670  0.05599266    -0.85090
C1940       C  0.50412570  0.74253631  0.17199911     0.87140
C1941       C  0.56297795  0.74911665  0.23302449     1.08710
H1942       H  0.53503047  0.72557883  0.11974899     0.40510
O1943       O  0.55298335  0.73597097  0.11968774    -1.07750
O1944       O  0.57742042  0.78644480  0.09089033    -0.64400
Ni1945     Ni  0.54269898  0.77469990  0.11487276     1.26350
O1946       O  0.52705230  0.72778530  0.17677299    -0.64630
O1947       O  0.52541001  0.76724818  0.07313796    -0.76920
C1948       C  0.51889186  0.82999634  0.13335759     0.86520
O1949       O  0.52971038  0.81391083  0.11097691    -0.64100
Ni1950     Ni  0.57364046  0.71548485  0.08735711     1.27450
Ni1951     Ni  0.56657348  0.73767037  0.16396696     1.26060
H1952       H  0.57689320  0.78935890  0.15900407     0.41070
C1953       C  0.98574612  0.73974675  0.01222517    -0.11270
C1954       C  0.50557443  0.74312334  0.03002387    -0.12830
C1955       C  0.53732522  0.76184313  0.88785407    -0.11270
C1956       C  0.51342611  0.75416821  0.87999425    -0.12830
C1957       C  0.61871284  0.79401023  0.01704693    -0.11270
C1958       C  0.60918797  0.78779012  0.04438492    -0.12830
C1959       C  0.61900623  0.87611630  0.76219996    -0.11270
C1960       C  0.62237273  0.85625097  0.77996426    -0.12830
C1961       C  0.63344573  0.84862003  0.63004797    -0.11270
C1962       C  0.64116729  0.82472829  0.63790472    -0.12830
C1963       C  0.66707999  0.75266516  0.79438953    -0.11270
C1964       C  0.67333425  0.74318466  0.76704177    -0.12830
C1965       C  0.75580320  0.74325305  0.51243858    -0.11270
C1966       C  0.73594179  0.73990428  0.53019441    -0.12830
C1967       C  0.75621026  0.87392298  0.87429346    -0.11270
C1968       C  0.73493075  0.85875954  0.87428071    -0.12830
C1969       C  0.89109304  0.82471058  0.90445076    -0.11270
C1970       C  0.88335195  0.84859090  0.91232740    -0.12830
C1971       C  0.98500702  0.85891565  0.66819063    -0.11270
C1972       C  0.50630846  0.87404581  0.66817422    -0.12830
C1973       C  0.92325950  0.74329951  0.77533029    -0.11270
C1974       C  0.91703085  0.75285630  0.74800838    -0.12830
C1975       C  0.86882985  0.87641563  0.78009588    -0.11270
C1976       C  0.87224790  0.85658372  0.76230170    -0.12830
C1977       C  0.78738493  0.76205167  0.65443949    -0.11270
C1978       C  0.76350163  0.75434173  0.66231659    -0.12830
C1979       C  0.86890601  0.79414931  0.52532928    -0.11270
C1980       C  0.85940491  0.78789661  0.49798960    -0.12830
C1981       C  0.82411207  0.73010240  0.24798761    -0.11270
C1982       C  0.81790154  0.73961685  0.27533330    -0.12830
C1983       C  0.95385725  0.72091334  0.15450483    -0.11270
C1984       C  0.97775461  0.72859685  0.16236604    -0.12830
C1985       C  0.87246357  0.68880079  0.02534541    -0.11270
C1986       C  0.88200741  0.69504428  0.99802331    -0.12830
C1987       C  0.85788249  0.63427393  0.41237454    -0.11270
C1988       C  0.85017186  0.65816717  0.40450492    -0.12830
C1989       C  0.87226297  0.60666596  0.28019885    -0.11270
C1990       C  0.86884127  0.62650302  0.26240774    -0.12830
C1991       C  0.98796485  0.62701236  0.91813567    -0.11270
C1992       C  0.50310258  0.60571101  0.91813572    -0.12830
C1993       C  0.97769181  0.97852236  0.88003989    -0.11270
C1994       C  0.95380032  0.97084641  0.88793221    -0.12830
C1995       C  0.60777028  0.88413287  0.91230172    -0.11270
C1996       C  0.60002363  0.90802613  0.90448209    -0.12830
C1997       C  0.56798115  0.98951602  0.77538331    -0.11270
C1998       C  0.57428198  0.97998557  0.74807582    -0.12830
C1999       C  0.50314793  0.85575304  0.12429720    -0.11270
C2000       C  0.98799238  0.87704376  0.12430167    -0.12830
C2001       C  0.87236227  0.93872743  0.01713018    -0.11270
C2002       C  0.88188580  0.94497072  0.04446369    -0.12830
C2003       C  0.89107800  0.57473317  0.13796287    -0.11270
C2004       C  0.88335534  0.59862677  0.13010599    -0.12830
C2005       C  0.92327739  0.99330929  0.26708390    -0.11270
C2006       C  0.91702645  0.50285923  0.29439905    -0.12830
C2007       C  0.50530729  0.99303758  0.01223389    -0.11270
C2008       C  0.98546999  0.98967294  0.03001846    -0.12830
C2009       C  0.73814105  0.62712989  0.62412515    -0.11270
C2010       C  0.75327706  0.60583033  0.62414182    -0.12830
C2011       C  0.70392735  0.97093416  0.65455569    -0.11430
C2012       C  0.72781739  0.97865178  0.66239326    -0.12830
C2013       C  0.85928161  0.53781732  0.54440029    -0.11270
C2014       C  0.86881439  0.54405887  0.51707221    -0.12830
C2015       C  0.85017486  0.90819964  0.63801876    -0.11270
C2016       C  0.85790339  0.88431959  0.63012939    -0.12830
C2017       C  0.81788055  0.98963498  0.76712483    -0.11270
C2018       C  0.82409254  0.98009043  0.79446068    -0.12830
C2019       C  0.73813051  0.87709256  0.41825010    -0.11270
C2020       C  0.75329907  0.85581676  0.41824297    -0.12830
C2021       C  0.63206624  0.94506886  0.49806243    -0.11270
C2022       C  0.62252531  0.93883866  0.52539114    -0.12830
C2023       C  0.76349766  0.50425188  0.38005671    -0.11270
C2024       C  0.78738373  0.51196488  0.38792057    -0.12830
C2025       C  0.75559569  0.99309650  0.53012564    -0.11270
C2026       C  0.73575810  0.98974483  0.51233042    -0.12830
C2027       C  0.75621904  0.62399290  0.16806182    -0.11270
C2028       C  0.73493397  0.60883283  0.16804808    -0.12830
C2029       C  0.60004618  0.65804622  0.13792392    -0.11270
C2030       C  0.60777294  0.63415684  0.13006484    -0.12830
C2031       C  0.67334243  0.99320188  0.27532132    -0.11270
C2032       C  0.66709999  0.50269778  0.24797174    -0.12830
C2033       C  0.53731588  0.51188536  0.15449413    -0.11270
C2034       C  0.51341660  0.50420764  0.16235012    -0.12830
C2035       C  0.60912586  0.53770045  0.99802193    -0.11270
C2036       C  0.61868970  0.54396645  0.02532802    -0.12830
C2037       C  0.50633257  0.62396309  0.37430145    -0.11270
C2038       C  0.98502250  0.60884186  0.37429914    -0.12830
C2039       C  0.56801018  0.73948798  0.26703325    -0.11270
C2040       C  0.57429621  0.72993476  0.29433894    -0.12830
C2041       C  0.64121166  0.57470997  0.40447779    -0.11270
C2042       C  0.63349830  0.59859578  0.41236266    -0.12830
C2043       C  0.62240220  0.60624661  0.26241578    -0.11270
C2044       C  0.61902835  0.62608232  0.28021406    -0.12830
C2045       C  0.72784789  0.72863496  0.38007825    -0.11270
C2046       C  0.70395487  0.72091121  0.38789185    -0.12830
C2047       C  0.62256360  0.68886500  0.51700345    -0.11270
C2048       C  0.63212086  0.69513375  0.54431106    -0.12830
loop_ 
_geom_bond_atom_site_label_1 
_geom_bond_atom_site_label_2 
_geom_bond_distance 
_geom_bond_site_symmetry_2 
_ccdc_geom_bond_type 
O1           Ni7   1.921       .  S
O1           C22   1.269       .  A
O2          Ni25   1.933       .  S
O2           C11   1.275       .  A
O3           Ni7   1.933       .  S
O3          Ni25   1.940       .  S
O3          Ni19   1.951       .  S
O3           H26   0.967       .  S
C4           O21   1.273       .  A
C4           O13   1.274       .  A
C4          C508   1.383       .  S
O5          Ni24   1.895       .  S
O5           C11   1.267       .  A
O6          Ni24   1.893       .  S
O6            C8   1.265       .  A
Ni7          O10   1.943       .  S
Ni7          O12   1.898       .  S
C8           O18   1.283       .  A
C8          C504   1.448       .  S
O9          Ni25   1.917       .  S
O9           C15   1.270       .  A
O10          C15   1.269       .  A
C11         C510   1.440       .  S
O12          C14   1.268       .  A
O13         Ni24   1.894       .  S
C14          O20   1.282       .  A
C14         C506   1.440       .  S
C15         C511   1.453       .  S
H16          O17   0.965       .  S
O17         Ni25   1.885       .  S
O17         Ni19   1.873       .  S
O17         Ni24   1.873       .  S
O18         Ni19   1.957       .  S
Ni19         O23   1.927       .  S
Ni19         O21   1.888       .  S
O20         Ni25   1.963       .  S
C22          O23   1.272       .  A
C22         C501   1.450       .  S
O27         Ni33   1.895       .  S
O27          C48   1.267       .  A
O28         Ni51   1.927       .  S
O28          C37   1.272       .  A
O29         Ni33   1.873       .  S
O29         Ni51   1.873       .  S
O29         Ni45   1.885       .  S
O29          H52   0.965       .  S
C30          O47   1.270       .  A
C30          O39   1.269       .  A
C30         C500   1.453       .  S
O31         Ni50   1.920       .  S
O31          C37   1.269       .  A
O32         Ni50   1.898       .  S
O32          C34   1.268       .  A
Ni33         O36   1.894       .  S
Ni33         O38   1.892       .  S
C34          O44   1.282       .  A
C34         C494   1.440       .  S
O35         Ni51   1.887       .  S
O35          C41   1.273       .  A
O36          C41   1.274       .  A
C37         C492   1.450       .  S
O38          C40   1.265       .  A
O39         Ni50   1.943       .  S
C40          O46   1.283       .  A
C40         C496   1.448       .  S
C41         C507   1.383       .  S
H42          O43   0.967       .  S
O43         Ni51   1.951       .  S
O43         Ni45   1.940       .  S
O43         Ni50   1.933       .  S
O44         Ni45   1.963       .  S
Ni45         O49   1.933       .  S
Ni45         O47   1.917       .  S
O46         Ni51   1.957       .  S
C48          O49   1.275       .  A
C48         C497   1.440       .  S
O53         Ni59   1.895       .  S
O53          C74   1.267       .  A
O54         Ni77   1.927       .  S
O54          C63   1.271       .  A
O55         Ni77   1.873       .  S
O55         Ni71   1.885       .  S
O55        Ni571   1.873       .  S
O55          H78   0.965       .  S
C56          O73   1.270       .  A
C56          O65   1.269       .  A
C56         C495   1.453       .  S
O57         Ni76   1.920       .  S
O57          C63   1.269       .  A
O58         Ni76   1.898       .  S
O58          C60   1.268       .  A
Ni59        O574   1.894       .  S
Ni59        O576   1.892   1_545  S
Ni59        O567   1.873   1_545  S
C60         O582   1.282       .  A
C60         C999   1.440       .  S
O61         Ni77   1.888       .  S
O61          C67   1.273       .  A
O62        Ni571   1.894       .  S
O62          C67   1.274       .  A
C63         C483   1.450       .  S
O64        Ni571   1.892       .  S
O64          C66   1.265       .  A
O65         Ni76   1.942       .  S
C66          O72   1.283       .  A
C66         C485   1.448       .  S
C67         C490   1.383       .  S
H68          O69   0.967       .  S
O69         Ni77   1.951       .  S
O69         Ni71   1.940       .  S
O69         Ni76   1.933       .  S
O70        Ni583   1.963   1_545  S
O70         C572   1.282   1_545  A
Ni71         O73   1.918       .  S
Ni71        O582   1.963       .  S
Ni71        O587   1.933       .  S
O72         Ni77   1.957       .  S
C74          O75   1.275       .  A
C74         C505   1.440       .  S
O75        Ni583   1.933   1_545  S
O79         Ni85   1.920       .  S
O79         C100   1.269       .  A
O80        Ni103   1.933       .  S
O80          C89   1.276       .  A
O81         Ni85   1.933       .  S
O81         Ni97   1.951       .  S
O81        Ni615   1.940   1_545  S
O81         H104   0.967       .  S
C82          O99   1.273   1_565  A
C82         O603   1.274       .  A
C82        C1001   1.383       .  S
O83        Ni102   1.895       .  S
O83          C89   1.267       .  A
O84        Ni614   1.892       .  S
O84          C86   1.265   1_565  A
Ni85         O88   1.942       .  S
Ni85         O90   1.898       .  S
C86          O96   1.283       .  A
C86         C477   1.448       .  S
O87        Ni103   1.918       .  S
O87         C605   1.270       .  A
O88          C93   1.269   1_545  A
C89         C479   1.440       .  S
O90         C604   1.268   1_545  A
O91        Ni102   1.894       .  S
O91         C594   1.274       .  A
C92          O98   1.282       .  A
C92         O602   1.268       .  A
C92         C476   1.440       .  S
C93         O599   1.270       .  A
C93         C993   1.453       .  S
H94          O95   0.965       .  S
O95        Ni103   1.885       .  S
O95        Ni102   1.873       .  S
O95        Ni609   1.873       .  S
O96         Ni97   1.957       .  S
Ni97        O101   1.927       .  S
Ni97         O99   1.888       .  S
Ni97        O607   1.873   1_545  S
O98        Ni103   1.963       .  S
C100        O101   1.271       .  A
C100        C474   1.450       .  S
Ni102       O596   1.892       .  S
Ni103       O593   1.940       .  S
O105       Ni111   1.920       .  S
O105        C126   1.269       .  A
O106       Ni641   1.933   1_545  S
O106        C115   1.275       .  A
O107       Ni111   1.933       .  S
O107       Ni129   1.940       .  S
O107       Ni123   1.951       .  S
O107        H130   0.967       .  S
C108        O125   1.273       .  A
C108        O117   1.274       .  A
C108        C472   1.383       .  S
O109       Ni128   1.895       .  S
O109        C115   1.267       .  A
O110       Ni640   1.892       .  S
O110        C112   1.265       .  A
Ni111       O114   1.942       .  S
Ni111       O116   1.898       .  S
C112        O122   1.283       .  A
C112        C466   1.448       .  S
O113       Ni129   1.917       .  S
O113        C119   1.270       .  A
O114        C119   1.269       .  A
C115        C467   1.440       .  S
O116        C118   1.268       .  A
O117       Ni640   1.894       .  S
C118        O636   1.282       .  A
C118       C2034   1.440       .  S
C119        C469   1.453       .  S
H120        O633   0.965   1_545  S
O121       Ni129   1.885       .  S
O121       Ni123   1.873       .  S
O121       Ni640   1.873       .  S
O121        H632   0.965       .  S
O122       Ni123   1.957       .  S
Ni123       O127   1.927       .  S
Ni123       O125   1.887       .  S
O124       Ni641   1.963   1_545  S
O124        C630   1.282   1_545  A
C126        O127   1.272       .  A
C126        C464   1.450       .  S
Ni128       O622   1.892   1_545  S
Ni128       O629   1.894       .  S
Ni128       O633   1.873   1_545  S
Ni129       O618   1.933       .  S
Ni129       O636   1.963       .  S
O131       Ni137   1.895       .  S
O131        C152   1.267       .  A
O132       Ni155   1.927       .  S
O132        C141   1.272       .  A
O133       Ni137   1.873       .  S
O133       Ni149   1.885       .  S
O133       Ni667   1.873       .  S
O133        H156   0.965       .  S
C134        O143   1.269   1_565  A
C134        O663   1.270       .  A
C134        C973   1.453       .  S
O135       Ni154   1.921       .  S
O135        C141   1.269       .  A
O136       Ni154   1.898       .  S
O136        C650   1.268   1_545  A
Ni137       O140   1.894       .  S
Ni137       O654   1.893       .  S
C138        O148   1.282       .  A
C138        O648   1.268       .  A
C138       C1481   1.440   1_455  S
O139       Ni155   1.887       .  S
O139        C145   1.273   1_545  A
O140        C657   1.274       .  A
C141        C456   1.450       .  S
O142       Ni649   1.893       .  S
O142        C144   1.265   1_565  A
O143       Ni154   1.943       .  S
C144        O150   1.283       .  A
C144        C499   1.448       .  S
C145        O652   1.274       .  A
C145        C983   1.383   1_556  S
H146        O147   0.967       .  S
O147       Ni155   1.951       .  S
O147       Ni154   1.933       .  S
O147       Ni661   1.940   1_545  S
O148       Ni149   1.963       .  S
Ni149       O153   1.933       .  S
Ni149       O151   1.917       .  S
Ni149       O659   1.940       .  S
O150       Ni155   1.957       .  S
O151        C646   1.270       .  A
C152        O153   1.275       .  A
C152        C460   1.440       .  S
Ni155       O645   1.873   1_545  S
O157       Ni163   1.920       .  S
O157        C178   1.269       .  A
O158       Ni181   1.933       .  S
O158        C167   1.275       .  A
O159       Ni163   1.933       .  S
O159       Ni181   1.940       .  S
O159       Ni175   1.951       .  S
O159        H182   0.967       .  S
C160        O177   1.273       .  A
C160        O169   1.274       .  A
C160        C453   1.383       .  S
O161       Ni180   1.895       .  S
O161        C167   1.267       .  A
O162       Ni180   1.892       .  S
O162        C164   1.265       .  A
Ni163       O166   1.942       .  S
Ni163       O168   1.898       .  S
C164        O174   1.283       .  A
C164        C470   1.448       .  S
O165       Ni181   1.917       .  S
O165        C171   1.270       .  A
O166        C171   1.269       .  A
C167        C488   1.440       .  S
O168        C170   1.268       .  A
O169       Ni180   1.894       .  S
C170        O176   1.282       .  A
C170        C451   1.440       .  S
C171        C478   1.453       .  S
H172        O173   0.965       .  S
O173       Ni181   1.885       .  S
O173       Ni175   1.873       .  S
O173       Ni180   1.873       .  S
O174       Ni175   1.957       .  S
Ni175       O179   1.927       .  S
Ni175       O177   1.888       .  S
O176       Ni181   1.963       .  S
C178        O179   1.272       .  A
C178        C502   1.450       .  S
O183       Ni189   1.895       .  S
O183        C204   1.267       .  A
O184       Ni207   1.927       .  S
O184        C193   1.272       .  A
O185       Ni189   1.873       .  S
O185       Ni207   1.873       .  S
O185       Ni201   1.885       .  S
O185        H208   0.965       .  S
C186        O203   1.270       .  A
C186        O195   1.269       .  A
C186        C449   1.453       .  S
O187       Ni206   1.920       .  S
O187        C193   1.269       .  A
O188       Ni206   1.898       .  S
O188        C190   1.268       .  A
Ni189       O192   1.894       .  S
Ni189       O194   1.892       .  S
C190        O200   1.282       .  A
C190        C468   1.440       .  S
O191       Ni207   1.887       .  S
O191        C197   1.273       .  A
O192        C197   1.274       .  A
C193        C491   1.450       .  S
O194        C196   1.265       .  A
O195       Ni206   1.942       .  S
C196        O202   1.283       .  A
C196        C445   1.448       .  S
C197        C454   1.383       .  S
H198        O199   0.967       .  S
O199       Ni207   1.951       .  S
O199       Ni201   1.940       .  S
O199       Ni206   1.933       .  S
O200       Ni201   1.963       .  S
Ni201       O205   1.933       .  S
Ni201       O203   1.917       .  S
O202       Ni207   1.957       .  S
C204        O205   1.275       .  A
C204        C447   1.440       .  S
O209       Ni215   1.895       .  S
O209        C230   1.267       .  A
O210       Ni233   1.927       .  S
O210        C219   1.271       .  A
O211       Ni215   1.873       .  S
O211       Ni233   1.873       .  S
O211       Ni227   1.885       .  S
O211        H234   0.965       .  S
C212        O229   1.270       .  A
C212        O221   1.269       .  A
C212        C443   1.453       .  S
O213       Ni232   1.920       .  S
O213        C219   1.269       .  A
O214       Ni232   1.898       .  S
O214        C216   1.268       .  A
Ni215       O218   1.894       .  S
Ni215       O220   1.892       .  S
C216        O226   1.282       .  A
C216        C480   1.440       .  S
O217       Ni233   1.887       .  S
O217        C223   1.273       .  A
O218        C223   1.274       .  A
C219        C435   1.450       .  S
O220        C222   1.265       .  A
O221       Ni232   1.942       .  S
C222        O228   1.283       .  A
C222        C438   1.448       .  S
C223        C440   1.383       .  S
H224        O225   0.967       .  S
O225       Ni233   1.951       .  S
O225       Ni227   1.940       .  S
O225       Ni232   1.933       .  S
O226       Ni227   1.963       .  S
Ni227       O231   1.933       .  S
Ni227       O229   1.918       .  S
O228       Ni233   1.957       .  S
C230        O231   1.275       .  A
C230        C441   1.440       .  S
O235       Ni241   1.920       .  S
O235        C256   1.269       .  A
O236       Ni259   1.933       .  S
O236        C245   1.275       .  A
O237       Ni241   1.933       .  S
O237       Ni259   1.940       .  S
O237       Ni253   1.951       .  S
O237        H260   0.967       .  S
C238        O255   1.273       .  A
C238        O247   1.274       .  A
C238        C439   1.383       .  S
O239       Ni258   1.895       .  S
O239        C245   1.267       .  A
O240       Ni258   1.892       .  S
O240        C242   1.265       .  A
Ni241       O244   1.942       .  S
Ni241       O246   1.898       .  S
C242        O252   1.283       .  A
C242        C482   1.448       .  S
O243       Ni259   1.918       .  S
O243        C249   1.270       .  A
O244        C249   1.269       .  A
C245        C458   1.440       .  S
O246        C248   1.268       .  A
O247       Ni258   1.894       .  S
C248        O254   1.282       .  A
C248        C434   1.440       .  S
C249        C465   1.453   1_556  S
H250        O251   0.965       .  S
O251       Ni259   1.885       .  S
O251       Ni253   1.873       .  S
O251       Ni258   1.873       .  S
O252       Ni253   1.957       .  S
Ni253       O257   1.927       .  S
Ni253       O255   1.887       .  S
O254       Ni259   1.963       .  S
C256        O257   1.271       .  A
C256        C431   1.450       .  S
O261       Ni267   1.895       .  S
O261        C282   1.267       .  A
O262       Ni285   1.927       .  S
O262        C271   1.271       .  A
O263       Ni267   1.873       .  S
O263       Ni285   1.873       .  S
O263       Ni279   1.885       .  S
O263        H286   0.965       .  S
C264        O281   1.270       .  A
C264        O273   1.269       .  A
C264        C446   1.453       .  S
O265       Ni284   1.920       .  S
O265        C271   1.269       .  A
O266       Ni284   1.898       .  S
O266        C268   1.268       .  A
Ni267       O270   1.894       .  S
Ni267       O272   1.892       .  S
C268        O278   1.282       .  A
C268        C509   1.440       .  S
O269       Ni285   1.887       .  S
O269        C275   1.273       .  A
O270        C275   1.274       .  A
C271        C484   1.450       .  S
O272        C274   1.265       .  A
O273       Ni284   1.942       .  S
C274        O280   1.283       .  A
C274        C444   1.448       .  S
C275        C429   1.383       .  S
H276        O277   0.967       .  S
O277       Ni285   1.951       .  S
O277       Ni279   1.940       .  S
O277       Ni284   1.933       .  S
O278       Ni279   1.963       .  S
Ni279       O283   1.933       .  S
Ni279       O281   1.918       .  S
O280       Ni285   1.957       .  S
C282        O283   1.275       .  A
C282        C452   1.440       .  S
O287       Ni293   1.920       .  S
O287        C308   1.269       .  A
O288       Ni311   1.933       .  S
O288        C297   1.276       .  A
O289       Ni293   1.933       .  S
O289       Ni311   1.940       .  S
O289       Ni305   1.951       .  S
O289        H312   0.967       .  S
C290        O307   1.273       .  A
C290        O299   1.274       .  A
C290        C430   1.383       .  S
O291       Ni310   1.895       .  S
O291        C297   1.267       .  A
O292       Ni310   1.893       .  S
O292        C294   1.265       .  A
Ni293       O296   1.942       .  S
Ni293       O298   1.898       .  S
C294        O304   1.283       .  A
C294        C512   1.448       .  S
O295       Ni311   1.918       .  S
O295        C301   1.270       .  A
O296        C301   1.269       .  A
C297        C426   1.440       .  S
O298        C300   1.268       .  A
O299       Ni310   1.894       .  S
C300        O306   1.282       .  A
C300        C442   1.440       .  S
C301        C428   1.453       .  S
H302        O303   0.965       .  S
O303       Ni311   1.885       .  S
O303       Ni305   1.873       .  S
O303       Ni310   1.873       .  S
O304       Ni305   1.957       .  S
Ni305       O309   1.927       .  S
Ni305       O307   1.888       .  S
O306       Ni311   1.963       .  S
C308        O309   1.271       .  A
C308        C473   1.450       .  S
O313       Ni319   1.895       .  S
O313        C334   1.267       .  A
O314       Ni337   1.927       .  S
O314        C323   1.271       .  A
O315       Ni319   1.873       .  S
O315       Ni337   1.873       .  S
O315       Ni331   1.885       .  S
O315        H338   0.965       .  S
C316        O333   1.270       .  A
C316        O325   1.269       .  A
C316        C486   1.453       .  S
O317       Ni336   1.920       .  S
O317        C323   1.269       .  A
O318       Ni336   1.898       .  S
O318        C320   1.268       .  A
Ni319       O322   1.894       .  S
Ni319       O324   1.893       .  S
C320        O330   1.282       .  A
C320        C425   1.440       .  S
O321       Ni337   1.888       .  S
O321        C327   1.273       .  A
O322        C327   1.274       .  A
C323        C436   1.450       .  S
O324        C326   1.265       .  A
O325       Ni336   1.942       .  S
C326        O332   1.283       .  A
C326        C462   1.448       .  S
C327        C423   1.383       .  S
H328        O329   0.967       .  S
O329       Ni337   1.951       .  S
O329       Ni331   1.940       .  S
O329       Ni336   1.933       .  S
O330       Ni331   1.963       .  S
Ni331       O335   1.933       .  S
Ni331       O333   1.918       .  S
O332       Ni337   1.957       .  S
C334        O335   1.276       .  A
C334        C475   1.440       .  S
O339       Ni345   1.920       .  S
O339        C360   1.269       .  A
O340       Ni363   1.933       .  S
O340        C349   1.275       .  A
O341       Ni345   1.933       .  S
O341       Ni363   1.940       .  S
O341       Ni357   1.951       .  S
O341        H364   0.967       .  S
C342        O359   1.273       .  A
C342        O351   1.274       .  A
C342        C424   1.383       .  S
O343       Ni362   1.895       .  S
O343        C349   1.267       .  A
O344       Ni362   1.892       .  S
O344        C346   1.265       .  A
Ni345       O348   1.942       .  S
Ni345       O350   1.898       .  S
C346        O356   1.283       .  A
C346        C427   1.448       .  S
O347       Ni363   1.918       .  S
O347        C353   1.270       .  A
O348        C353   1.269       .  A
C349        C419   1.440       .  S
O350        C352   1.268       .  A
O351       Ni362   1.894       .  S
C352        O358   1.282       .  A
C352        C459   1.440       .  S
C353        C421   1.453   1_556  S
H354        O355   0.965       .  S
O355       Ni363   1.885       .  S
O355       Ni357   1.873       .  S
O355       Ni362   1.873       .  S
O356       Ni357   1.957       .  S
Ni357       O361   1.927       .  S
Ni357       O359   1.887       .  S
O358       Ni363   1.963       .  S
C360        O361   1.271       .  A
C360        C432   1.450       .  S
O365       Ni371   1.895       .  S
O365        C386   1.267       .  A
O366       Ni389   1.927       .  S
O366        C375   1.272       .  A
O367       Ni371   1.873       .  S
O367       Ni389   1.873       .  S
O367       Ni383   1.885       .  S
O367        H390   0.965       .  S
C368        O385   1.270       .  A
C368        O377   1.269       .  A
C368        C437   1.453       .  S
O369       Ni388   1.920       .  S
O369        C375   1.269       .  A
O370       Ni388   1.897       .  S
O370        C372   1.268       .  A
Ni371       O374   1.894       .  S
Ni371       O376   1.892       .  S
C372        O382   1.282       .  A
C372       C1444   1.440       .  S
O373       Ni389   1.888       .  S
O373        C379   1.273       .  A
O374        C379   1.274       .  A
C375        C455   1.450       .  S
O376        C378   1.265       .  A
O377       Ni388   1.942       .  S
C378        O384   1.283       .  A
C378        C450   1.448       .  S
C379        C417   1.383   1_556  S
H380        O381   0.967       .  S
O381       Ni389   1.951       .  S
O381       Ni383   1.940       .  S
O381       Ni388   1.933       .  S
O382       Ni383   1.963       .  S
Ni383       O387   1.933       .  S
Ni383       O385   1.917       .  S
O384       Ni389   1.957       .  S
C386        O387   1.276       .  A
C386        C433   1.440       .  S
O391       Ni397   1.920       .  S
O391        C412   1.269       .  A
O392       Ni415   1.933       .  S
O392        C401   1.275       .  A
O393       Ni397   1.933       .  S
O393       Ni415   1.940       .  S
O393       Ni409   1.951       .  S
O393        H416   0.967       .  S
C394        O411   1.273       .  A
C394        O403   1.274       .  A
C394        C418   1.383       .  S
O395       Ni414   1.895       .  S
O395        C401   1.267       .  A
O396       Ni414   1.892       .  S
O396        C398   1.265       .  A
Ni397       O400   1.942       .  S
Ni397       O402   1.898       .  S
C398        O408   1.283       .  A
C398        C422   1.448       .  S
O399       Ni415   1.917       .  S
O399        C405   1.270       .  A
O400        C405   1.269       .  A
C401        C493   1.440       .  S
O402        C404   1.268       .  A
O403       Ni414   1.894       .  S
C404        O410   1.282       .  A
C404       C1472   1.440   1_455  S
C405        C503   1.453       .  S
H406        O407   0.965       .  S
O407       Ni415   1.885       .  S
O407       Ni409   1.873       .  S
O407       Ni414   1.873       .  S
O408       Ni409   1.957       .  S
Ni409       O413   1.927       .  S
Ni409       O411   1.887       .  S
O410       Ni415   1.963       .  S
C412        O413   1.272       .  A
C412        C463   1.450       .  S
C417       C1442   1.176       .  T
C418       C1441   1.176   1_455  T
C419        C420   1.209       .  T
C420       C1396   1.440   1_455  S
C421        C422   1.216       .  T
C423        C424   1.176       .  T
C425        C426   1.209       .  T
C427        C428   1.216       .  T
C429        C430   1.176       .  T
C431        C432   1.215       .  T
C433        C434   1.209       .  T
C435       C1460   1.215       .  T
C436       C1459   1.215   1_455  T
C437        C438   1.216       .  T
C439        C440   1.176       .  T
C441        C442   1.209       .  T
C443        C444   1.216       .  T
C445        C446   1.216       .  T
C447        C448   1.209       .  T
C448       C1428   1.440       .  S
C449        C450   1.216   1_554  T
C451        C452   1.209       .  T
C453        C454   1.176       .  T
C455       C1480   1.215       .  T
C456       C1479   1.215   1_455  T
C457       C1162   1.440       .  S
C457        C458   1.209       .  T
C459        C460   1.209       .  T
C461        C646   1.453       .  S
C461        C462   1.216       .  T
C463       C1488   1.215   1_455  T
C464       C1487   1.215       .  T
C465        C466   1.216       .  T
C467        C468   1.209       .  T
C469        C982   1.216       .  T
C470        C981   1.216   1_545  T
C471        C657   1.383   1_554  S
C471       C1496   1.176   1_455  T
C472       C1495   1.176       .  T
C473        C474   1.215       .  T
C475        C476   1.209       .  T
C477        C478   1.216       .  T
C479        C480   1.209       .  T
C481        C605   1.453       .  S
C481        C482   1.216       .  T
C483        C484   1.215       .  T
C485        C486   1.216       .  T
C487        C572   1.440   1_545  S
C487        C488   1.209       .  T
C489        C594   1.383       .  S
C489        C490   1.176       .  T
C491        C492   1.215       .  T
C493        C494   1.209       .  T
C495       C1008   1.216       .  T
C496       C1007   1.216   1_545  T
C497        C498   1.209       .  T
C498       C1654   1.440   1_445  S
C499        C500   1.216   1_556  T
C501       C1526   1.215   1_455  T
C502       C1525   1.215       .  T
C503        C504   1.216       .  T
C505        C506   1.209       .  T
C507        C508   1.176       .  T
C509        C510   1.209       .  T
C511        C512   1.216       .  T
O513       Ni519   1.921       .  S
O513        C534   1.269       .  A
O514       Ni537   1.933       .  S
O514        C523   1.275       .  A
O515       Ni519   1.933       .  S
O515       Ni537   1.940       .  S
O515       Ni531   1.951       .  S
O515        H538   0.967       .  S
C516        O533   1.273       .  A
C516        O525   1.274       .  A
C516       C1020   1.383       .  S
O517       Ni536   1.895       .  S
O517        C523   1.267       .  A
O518       Ni536   1.893       .  S
O518        C520   1.265       .  A
Ni519       O522   1.943       .  S
Ni519       O524   1.898       .  S
C520        O530   1.283       .  A
C520       C1016   1.448       .  S
O521       Ni537   1.917       .  S
O521        C527   1.270       .  A
O522        C527   1.269       .  A
C523       C1022   1.440       .  S
O524        C526   1.268       .  A
O525       Ni536   1.894       .  S
C526        O532   1.282       .  A
C526       C1018   1.440       .  S
C527       C1023   1.453       .  S
H528        O529   0.965       .  S
O529       Ni537   1.885       .  S
O529       Ni531   1.873       .  S
O529       Ni536   1.873       .  S
O530       Ni531   1.957       .  S
Ni531       O535   1.927       .  S
Ni531       O533   1.888       .  S
O532       Ni537   1.963       .  S
C534        O535   1.271       .  A
C534       C1013   1.450       .  S
O539       Ni545   1.895       .  S
O539        C560   1.267       .  A
O540       Ni563   1.927       .  S
O540        C549   1.272       .  A
O541       Ni545   1.873       .  S
O541       Ni563   1.873       .  S
O541       Ni557   1.885       .  S
O541        H564   0.965       .  S
C542        O559   1.270       .  A
C542        O551   1.269       .  A
C542       C1012   1.453       .  S
O543       Ni562   1.920       .  S
O543        C549   1.269       .  A
O544       Ni562   1.898       .  S
O544        C546   1.268       .  A
Ni545       O548   1.894       .  S
Ni545       O550   1.892       .  S
C546        O556   1.282       .  A
C546       C1006   1.440       .  S
O547       Ni563   1.887       .  S
O547        C553   1.273       .  A
O548        C553   1.274       .  A
C549       C1004   1.450       .  S
O550        C552   1.265       .  A
O551       Ni562   1.943       .  S
C552        O558   1.283       .  A
C552       C1008   1.448       .  S
C553       C1019   1.383       .  S
H554        O555   0.967       .  S
O555       Ni563   1.951       .  S
O555       Ni557   1.940       .  S
O555       Ni562   1.933       .  S
O556       Ni557   1.963       .  S
Ni557       O561   1.933       .  S
Ni557       O559   1.917       .  S
O558       Ni563   1.957       .  S
C560        O561   1.275       .  A
C560       C1009   1.440       .  S
O565       Ni571   1.895       .  S
O565        C586   1.267       .  A
O566       Ni589   1.927       .  S
O566        C575   1.271       .  A
O567       Ni589   1.873       .  S
O567       Ni583   1.885       .  S
O567        H590   0.965   1_565  S
C568        O585   1.270       .  A
C568        O577   1.269       .  A
C568       C1007   1.453       .  S
O569       Ni588   1.920       .  S
O569        C575   1.269       .  A
O570       Ni588   1.898       .  S
O570        C572   1.268       .  A
O573       Ni589   1.888       .  S
O573        C579   1.273       .  A
O574        C579   1.274   1_545  A
C575        C995   1.450       .  S
O576        C578   1.265       .  A
O577       Ni588   1.942       .  S
C578        O584   1.283       .  A
C578        C997   1.448       .  S
C579       C1002   1.383       .  S
H580        O581   0.967       .  S
O581       Ni589   1.951       .  S
O581       Ni583   1.940       .  S
O581       Ni588   1.933       .  S
Ni583       O585   1.918       .  S
O584       Ni589   1.957       .  S
C586        O587   1.275       .  A
C586       C1017   1.440       .  S
O591       Ni597   1.920       .  S
O591        C612   1.269       .  A
O592       Ni615   1.933       .  S
O592        C601   1.276       .  A
O593       Ni597   1.933       .  S
O593       Ni609   1.951       .  S
O593        H616   0.967       .  S
C594        O611   1.273       .  A
O595       Ni614   1.895       .  S
O595        C601   1.267       .  A
O596        C598   1.265       .  A
Ni597       O600   1.942       .  S
Ni597       O602   1.898       .  S
C598        O608   1.283       .  A
C598        C989   1.448       .  S
O599       Ni615   1.918       .  S
O600        C605   1.269       .  A
C601        C991   1.440       .  S
O603       Ni614   1.894       .  S
C604        O610   1.282       .  A
C604        C988   1.440       .  S
H606        O607   0.965       .  S
O607       Ni615   1.885       .  S
O607       Ni614   1.873       .  S
O608       Ni609   1.957       .  S
Ni609       O613   1.927       .  S
Ni609       O611   1.888       .  S
O610       Ni615   1.963       .  S
C612        O613   1.271       .  A
C612        C986   1.450       .  S
O617       Ni623   1.920       .  S
O617        C638   1.269       .  A
O618        C627   1.275       .  A
O619       Ni623   1.933       .  S
O619       Ni641   1.940       .  S
O619       Ni635   1.951       .  S
O619        H642   0.967       .  S
C620        O637   1.273       .  A
C620        O629   1.274   1_565  A
C620        C984   1.383       .  S
O621       Ni640   1.895       .  S
O621        C627   1.267       .  A
O622        C624   1.265       .  A
Ni623       O626   1.942       .  S
Ni623       O628   1.898       .  S
C624        O634   1.283       .  A
C624        C978   1.448       .  S
O625       Ni641   1.917       .  S
O625        C631   1.270       .  A
O626        C631   1.269       .  A
C627        C979   1.440       .  S
O628        C630   1.268       .  A
C630       C1522   1.440   1_565  S
C631        C981   1.453       .  S
O633       Ni641   1.885       .  S
O633       Ni635   1.873       .  S
O634       Ni635   1.957       .  S
Ni635       O639   1.927       .  S
Ni635       O637   1.887       .  S
C638        O639   1.272       .  A
C638        C976   1.450       .  S
O643       Ni649   1.895       .  S
O643        C664   1.267       .  A
O644       Ni667   1.927       .  S
O644        C653   1.272       .  A
O645       Ni649   1.873       .  S
O645       Ni661   1.885       .  S
O645        H668   0.965       .  S
C646        O655   1.269       .  A
O647       Ni666   1.920       .  S
O647        C653   1.269       .  A
O648       Ni666   1.898       .  S
Ni649       O652   1.894       .  S
C650        O660   1.282       .  A
C650       C1993   1.440   1_455  S
O651       Ni667   1.887       .  S
O651        C657   1.273       .  A
C653        C968   1.450       .  S
O654        C656   1.265       .  A
O655       Ni666   1.943       .  S
C656        O662   1.283       .  A
C656       C1011   1.448       .  S
H658        O659   0.967       .  S
O659       Ni667   1.951       .  S
O659       Ni666   1.933       .  S
O660       Ni661   1.963       .  S
Ni661       O665   1.933       .  S
Ni661       O663   1.917       .  S
O662       Ni667   1.957       .  S
C664        O665   1.275       .  A
C664        C972   1.440       .  S
O669       Ni675   1.920       .  S
O669        C690   1.269       .  A
O670       Ni693   1.933       .  S
O670        C679   1.275       .  A
O671       Ni675   1.933       .  S
O671       Ni693   1.940       .  S
O671       Ni687   1.951       .  S
O671        H694   0.967       .  S
C672        O689   1.273       .  A
C672        O681   1.274       .  A
C672        C965   1.383       .  S
O673       Ni692   1.895       .  S
O673        C679   1.267       .  A
O674       Ni692   1.892       .  S
O674        C676   1.265       .  A
Ni675       O678   1.942       .  S
Ni675       O680   1.898       .  S
C676        O686   1.283       .  A
C676        C982   1.448       .  S
O677       Ni693   1.917       .  S
O677        C683   1.270       .  A
O678        C683   1.269       .  A
C679       C1000   1.440       .  S
O680        C682   1.268       .  A
O681       Ni692   1.894       .  S
C682        O688   1.282       .  A
C682        C963   1.440       .  S
C683        C990   1.453       .  S
H684        O685   0.965       .  S
O685       Ni693   1.885       .  S
O685       Ni687   1.873       .  S
O685       Ni692   1.873       .  S
O686       Ni687   1.957       .  S
Ni687       O691   1.927       .  S
Ni687       O689   1.888       .  S
O688       Ni693   1.963       .  S
C690        O691   1.272       .  A
C690       C1014   1.450       .  S
O695       Ni701   1.895       .  S
O695        C716   1.267       .  A
O696       Ni719   1.927       .  S
O696        C705   1.272       .  A
O697       Ni701   1.873       .  S
O697       Ni719   1.873       .  S
O697       Ni713   1.885       .  S
O697        H720   0.965       .  S
C698        O715   1.270       .  A
C698        O707   1.269       .  A
C698        C961   1.453       .  S
O699       Ni718   1.920       .  S
O699        C705   1.269       .  A
O700       Ni718   1.898       .  S
O700        C702   1.268       .  A
Ni701       O704   1.894       .  S
Ni701       O706   1.892       .  S
C702        O712   1.282       .  A
C702        C980   1.440       .  S
O703       Ni719   1.887       .  S
O703        C709   1.273       .  A
O704        C709   1.274       .  A
C705       C1003   1.450       .  S
O706        C708   1.265       .  A
O707       Ni718   1.942       .  S
C708        O714   1.283       .  A
C708        C957   1.448       .  S
C709        C966   1.383       .  S
H710        O711   0.967       .  S
O711       Ni719   1.951       .  S
O711       Ni713   1.940       .  S
O711       Ni718   1.933       .  S
O712       Ni713   1.963       .  S
Ni713       O717   1.933       .  S
Ni713       O715   1.917       .  S
O714       Ni719   1.957       .  S
C716        O717   1.275       .  A
C716        C959   1.440       .  S
O721       Ni727   1.895       .  S
O721        C742   1.267       .  A
O722       Ni745   1.927       .  S
O722        C731   1.271       .  A
O723       Ni727   1.873       .  S
O723       Ni745   1.873       .  S
O723       Ni739   1.885       .  S
O723        H746   0.965       .  S
C724        O741   1.270       .  A
C724        O733   1.269       .  A
C724        C955   1.453       .  S
O725       Ni744   1.920       .  S
O725        C731   1.269       .  A
O726       Ni744   1.898       .  S
O726        C728   1.268       .  A
Ni727       O730   1.894       .  S
Ni727       O732   1.892       .  S
C728        O738   1.282       .  A
C728        C992   1.440       .  S
O729       Ni745   1.887       .  S
O729        C735   1.273       .  A
O730        C735   1.274       .  A
C731        C947   1.450       .  S
O732        C734   1.265       .  A
O733       Ni744   1.942       .  S
C734        O740   1.283       .  A
C734        C950   1.448       .  S
C735        C952   1.383       .  S
H736        O737   0.967       .  S
O737       Ni745   1.951       .  S
O737       Ni739   1.940       .  S
O737       Ni744   1.933       .  S
O738       Ni739   1.963       .  S
Ni739       O743   1.933       .  S
Ni739       O741   1.918       .  S
O740       Ni745   1.957       .  S
C742        O743   1.275       .  A
C742        C953   1.440       .  S
O747       Ni753   1.920       .  S
O747        C768   1.269       .  A
O748       Ni771   1.933       .  S
O748        C757   1.275       .  A
O749       Ni753   1.933       .  S
O749       Ni771   1.940       .  S
O749       Ni765   1.951       .  S
O749        H772   0.967       .  S
C750        O767   1.273       .  A
C750        O759   1.274       .  A
C750        C951   1.383       .  S
O751       Ni770   1.895       .  S
O751        C757   1.267       .  A
O752       Ni770   1.892       .  S
O752        C754   1.265       .  A
Ni753       O756   1.942       .  S
Ni753       O758   1.898       .  S
C754        O764   1.283       .  A
C754        C994   1.448       .  S
O755       Ni771   1.918       .  S
O755        C761   1.270       .  A
O756        C761   1.269       .  A
C757        C970   1.440       .  S
O758        C760   1.268       .  A
O759       Ni770   1.894       .  S
C760        O766   1.282       .  A
C760        C946   1.440       .  S
C761        C977   1.453   1_556  S
H762        O763   0.965       .  S
O763       Ni771   1.885       .  S
O763       Ni765   1.873       .  S
O763       Ni770   1.873       .  S
O764       Ni765   1.957       .  S
Ni765       O769   1.927       .  S
Ni765       O767   1.887       .  S
O766       Ni771   1.963       .  S
C768        O769   1.271       .  A
C768        C943   1.450       .  S
O773       Ni779   1.895       .  S
O773        C794   1.267       .  A
O774       Ni797   1.927       .  S
O774        C783   1.271       .  A
O775       Ni779   1.873       .  S
O775       Ni797   1.873       .  S
O775       Ni791   1.885       .  S
O775        H798   0.965       .  S
C776        O793   1.270       .  A
C776        O785   1.269       .  A
C776        C958   1.453       .  S
O777       Ni796   1.920       .  S
O777        C783   1.269       .  A
O778       Ni796   1.898       .  S
O778        C780   1.268       .  A
Ni779       O782   1.894       .  S
Ni779       O784   1.892       .  S
C780        O790   1.282       .  A
C780       C1021   1.440       .  S
O781       Ni797   1.887       .  S
O781        C787   1.273       .  A
O782        C787   1.274       .  A
C783        C996   1.450       .  S
O784        C786   1.265       .  A
O785       Ni796   1.942       .  S
C786        O792   1.283       .  A
C786        C956   1.448       .  S
C787        C941   1.383       .  S
H788        O789   0.967       .  S
O789       Ni797   1.951       .  S
O789       Ni791   1.940       .  S
O789       Ni796   1.933       .  S
O790       Ni791   1.963       .  S
Ni791       O795   1.933       .  S
Ni791       O793   1.918       .  S
O792       Ni797   1.957       .  S
C794        O795   1.275       .  A
C794        C964   1.440       .  S
O799       Ni805   1.920       .  S
O799        C820   1.269       .  A
O800       Ni823   1.933       .  S
O800        C809   1.276       .  A
O801       Ni805   1.933       .  S
O801       Ni823   1.940       .  S
O801       Ni817   1.951       .  S
O801        H824   0.967       .  S
C802        O819   1.273       .  A
C802        O811   1.274       .  A
C802        C942   1.383       .  S
O803       Ni822   1.895       .  S
O803        C809   1.267       .  A
O804       Ni822   1.893       .  S
O804        C806   1.265       .  A
Ni805       O808   1.942       .  S
Ni805       O810   1.898       .  S
C806        O816   1.283       .  A
C806       C1024   1.448       .  S
O807       Ni823   1.918       .  S
O807        C813   1.270       .  A
O808        C813   1.269       .  A
C809        C938   1.440       .  S
O810        C812   1.268       .  A
O811       Ni822   1.894       .  S
C812        O818   1.282       .  A
C812        C954   1.440       .  S
C813        C940   1.453       .  S
H814        O815   0.965       .  S
O815       Ni823   1.885       .  S
O815       Ni817   1.873       .  S
O815       Ni822   1.873       .  S
O816       Ni817   1.957       .  S
Ni817       O821   1.927       .  S
Ni817       O819   1.888       .  S
O818       Ni823   1.963       .  S
C820        O821   1.271       .  A
C820        C985   1.450       .  S
O825       Ni831   1.895       .  S
O825        C846   1.267       .  A
O826       Ni849   1.927       .  S
O826        C835   1.271       .  A
O827       Ni831   1.873       .  S
O827       Ni849   1.873       .  S
O827       Ni843   1.885       .  S
O827        H850   0.965       .  S
C828        O845   1.270       .  A
C828        O837   1.269       .  A
C828        C998   1.453       .  S
O829       Ni848   1.920       .  S
O829        C835   1.269       .  A
O830       Ni848   1.898       .  S
O830        C832   1.268       .  A
Ni831       O834   1.894       .  S
Ni831       O836   1.893       .  S
C832        O842   1.282       .  A
C832        C937   1.440       .  S
O833       Ni849   1.888       .  S
O833        C839   1.273       .  A
O834        C839   1.274       .  A
C835        C948   1.450       .  S
O836        C838   1.265       .  A
O837       Ni848   1.942       .  S
C838        O844   1.283       .  A
C838        C974   1.448       .  S
C839        C935   1.383       .  S
H840        O841   0.967       .  S
O841       Ni849   1.951       .  S
O841       Ni843   1.940       .  S
O841       Ni848   1.933       .  S
O842       Ni843   1.963       .  S
Ni843       O847   1.933       .  S
Ni843       O845   1.918       .  S
O844       Ni849   1.957       .  S
C846        O847   1.276       .  A
C846        C987   1.440       .  S
O851       Ni857   1.920       .  S
O851        C872   1.269       .  A
O852       Ni875   1.933       .  S
O852        C861   1.275       .  A
O853       Ni857   1.933       .  S
O853       Ni875   1.940       .  S
O853       Ni869   1.951       .  S
O853        H876   0.967       .  S
C854        O871   1.273       .  A
C854        O863   1.274       .  A
C854        C936   1.383       .  S
O855       Ni874   1.895       .  S
O855        C861   1.267       .  A
O856       Ni874   1.892       .  S
O856        C858   1.265       .  A
Ni857       O860   1.942       .  S
Ni857       O862   1.898       .  S
C858        O868   1.283       .  A
C858        C939   1.448       .  S
O859       Ni875   1.918       .  S
O859        C865   1.270       .  A
O860        C865   1.269       .  A
C861        C931   1.440       .  S
O862        C864   1.268       .  A
O863       Ni874   1.894       .  S
C864        O870   1.282       .  A
C864        C971   1.440       .  S
C865        C933   1.453   1_556  S
H866        O867   0.965       .  S
O867       Ni875   1.885       .  S
O867       Ni869   1.873       .  S
O867       Ni874   1.873       .  S
O868       Ni869   1.957       .  S
Ni869       O873   1.927       .  S
Ni869       O871   1.887       .  S
O870       Ni875   1.963       .  S
C872        O873   1.271       .  A
C872        C944   1.450       .  S
O877       Ni883   1.895       .  S
O877        C898   1.267       .  A
O878       Ni901   1.927       .  S
O878        C887   1.272       .  A
O879       Ni883   1.873       .  S
O879       Ni901   1.873       .  S
O879       Ni895   1.885       .  S
O879        H902   0.965       .  S
C880        O897   1.270       .  A
C880        O889   1.269       .  A
C880        C949   1.453       .  S
O881       Ni900   1.920       .  S
O881        C887   1.269       .  A
O882       Ni900   1.897       .  S
O882        C884   1.268       .  A
Ni883       O886   1.894       .  S
Ni883       O888   1.892       .  S
C884        O894   1.282       .  A
C884       C1956   1.440       .  S
O885       Ni901   1.888       .  S
O885        C891   1.273       .  A
O886        C891   1.274       .  A
C887        C967   1.450       .  S
O888        C890   1.265       .  A
O889       Ni900   1.942       .  S
C890        O896   1.283       .  A
C890        C962   1.448       .  S
C891        C929   1.383   1_556  S
H892        O893   0.967       .  S
O893       Ni901   1.951       .  S
O893       Ni895   1.940       .  S
O893       Ni900   1.933       .  S
O894       Ni895   1.963       .  S
Ni895       O899   1.933       .  S
Ni895       O897   1.917       .  S
O896       Ni901   1.957       .  S
C898        O899   1.276       .  A
C898        C945   1.440       .  S
O903       Ni909   1.920       .  S
O903        C924   1.269       .  A
O904       Ni927   1.933       .  S
O904        C913   1.275       .  A
O905       Ni909   1.933       .  S
O905       Ni927   1.940       .  S
O905       Ni921   1.951       .  S
O905        H928   0.967       .  S
C906        O923   1.273       .  A
C906        O915   1.274       .  A
C906        C930   1.383       .  S
O907       Ni926   1.895       .  S
O907        C913   1.267       .  A
O908       Ni926   1.892       .  S
O908        C910   1.265       .  A
Ni909       O912   1.942       .  S
Ni909       O914   1.898       .  S
C910        O920   1.283       .  A
C910        C934   1.448       .  S
O911       Ni927   1.917       .  S
O911        C917   1.270       .  A
O912        C917   1.269       .  A
C913       C1005   1.440       .  S
O914        C916   1.268       .  A
O915       Ni926   1.894       .  S
C916        O922   1.282       .  A
C916       C1984   1.440   1_455  S
C917       C1015   1.453       .  S
H918        O919   0.965       .  S
O919       Ni927   1.885       .  S
O919       Ni921   1.873       .  S
O919       Ni926   1.873       .  S
O920       Ni921   1.957       .  S
Ni921       O925   1.927       .  S
Ni921       O923   1.887       .  S
O922       Ni927   1.963       .  S
C924        O925   1.272       .  A
C924        C975   1.450       .  S
C929       C1954   1.176       .  T
C930       C1953   1.176   1_455  T
C931        C932   1.209       .  T
C932       C1908   1.440   1_455  S
C933        C934   1.216       .  T
C935        C936   1.176       .  T
C937        C938   1.209       .  T
C939        C940   1.216       .  T
C941        C942   1.176       .  T
C943        C944   1.215       .  T
C945        C946   1.209       .  T
C947       C1972   1.215       .  T
C948       C1971   1.215   1_455  T
C949        C950   1.216       .  T
C951        C952   1.176       .  T
C953        C954   1.209       .  T
C955        C956   1.216       .  T
C957        C958   1.216       .  T
C959        C960   1.209       .  T
C960       C1940   1.440       .  S
C961        C962   1.216   1_554  T
C963        C964   1.209       .  T
C965        C966   1.176       .  T
C967       C1992   1.215       .  T
C968       C1991   1.215   1_455  T
C969       C1674   1.440       .  S
C969        C970   1.209       .  T
C971        C972   1.209       .  T
C973        C974   1.216       .  T
C975       C2000   1.215   1_455  T
C976       C1999   1.215       .  T
C977        C978   1.216       .  T
C979        C980   1.209       .  T
C983       C2008   1.176   1_455  T
C984       C2007   1.176       .  T
C985        C986   1.215       .  T
C987        C988   1.209       .  T
C989        C990   1.216       .  T
C991        C992   1.209       .  T
C993        C994   1.216       .  T
C995        C996   1.215       .  T
C997        C998   1.216       .  T
C999       C1000   1.209       .  T
C1001      C1002   1.176       .  T
C1003      C1004   1.215       .  T
C1005      C1006   1.209       .  T
C1009      C1010   1.209       .  T
C1010      C1142   1.440   1_455  S
C1011      C1012   1.216   1_556  T
C1013      C2038   1.215   1_455  T
C1014      C2037   1.215       .  T
C1015      C1016   1.216       .  T
C1017      C1018   1.209       .  T
C1019      C1020   1.176       .  T
C1021      C1022   1.209       .  T
C1023      C1024   1.216       .  T
O1025     Ni1031   1.921       .  S
O1025      C1046   1.269       .  A
O1026     Ni1049   1.933       .  S
O1026      C1035   1.275       .  A
O1027     Ni1031   1.933       .  S
O1027     Ni1049   1.940       .  S
O1027     Ni1043   1.951       .  S
O1027      H1050   0.967       .  S
C1028      O1045   1.273       .  A
C1028      O1037   1.274       .  A
C1028      C1532   1.383       .  S
O1029     Ni1048   1.895       .  S
O1029      C1035   1.267       .  A
O1030     Ni1048   1.893       .  S
O1030      C1032   1.265       .  A
Ni1031     O1034   1.943       .  S
Ni1031     O1036   1.898       .  S
C1032      O1042   1.283       .  A
C1032      C1528   1.448       .  S
O1033     Ni1049   1.917       .  S
O1033      C1039   1.270       .  A
O1034      C1039   1.269       .  A
C1035      C1534   1.440       .  S
O1036      C1038   1.268       .  A
O1037     Ni1048   1.894       .  S
C1038      O1044   1.282       .  A
C1038      C1530   1.440       .  S
C1039      C1535   1.453       .  S
H1040      O1041   0.965       .  S
O1041     Ni1049   1.885       .  S
O1041     Ni1043   1.873       .  S
O1041     Ni1048   1.873       .  S
O1042     Ni1043   1.957       .  S
Ni1043     O1047   1.927       .  S
Ni1043     O1045   1.888       .  S
O1044     Ni1049   1.963       .  S
C1046      O1047   1.272       .  A
C1046      C1525   1.450       .  S
O1051     Ni1057   1.895       .  S
O1051      C1072   1.267       .  A
O1052     Ni1075   1.927       .  S
O1052      C1061   1.272       .  A
O1053     Ni1057   1.873       .  S
O1053     Ni1075   1.873       .  S
O1053     Ni1069   1.885       .  S
O1053      H1076   0.965       .  S
C1054      O1071   1.270       .  A
C1054      O1063   1.269       .  A
C1054      C1524   1.453       .  S
O1055     Ni1074   1.920       .  S
O1055      C1061   1.269       .  A
O1056     Ni1074   1.898       .  S
O1056      C1058   1.268       .  A
Ni1057     O1060   1.894       .  S
Ni1057     O1062   1.892       .  S
C1058      O1068   1.282       .  A
C1058      C1518   1.440       .  S
O1059     Ni1075   1.887       .  S
O1059      C1065   1.273       .  A
O1060      C1065   1.274       .  A
C1061      C1516   1.450       .  S
O1062      C1064   1.265       .  A
O1063     Ni1074   1.943       .  S
C1064      O1070   1.283       .  A
C1064      C1520   1.448       .  S
C1065      C1531   1.383       .  S
H1066      O1067   0.967       .  S
O1067     Ni1075   1.951       .  S
O1067     Ni1069   1.940       .  S
O1067     Ni1074   1.933       .  S
O1068     Ni1069   1.963       .  S
Ni1069     O1073   1.933       .  S
Ni1069     O1071   1.917       .  S
O1070     Ni1075   1.957       .  S
C1072      O1073   1.275       .  A
C1072      C1521   1.440       .  S
O1077     Ni1083   1.895       .  S
O1077      C1098   1.267       .  A
O1078     Ni1101   1.927       .  S
O1078      C1087   1.271       .  A
O1079     Ni1595   1.873       .  S
O1079     Ni1101   1.873       .  S
O1079     Ni1095   1.885       .  S
O1079      H1102   0.965       .  S
C1080      O1097   1.270       .  A
C1080      O1089   1.269       .  A
C1080      C1519   1.453       .  S
O1081     Ni1100   1.920       .  S
O1081      C1087   1.269       .  A
O1082     Ni1100   1.898       .  S
O1082      C1084   1.268       .  A
Ni1083     O1598   1.894       .  S
Ni1083     O1600   1.892   1_545  S
Ni1083     O1591   1.873   1_545  S
C1084      O1606   1.282       .  A
C1084      C2023   1.440       .  S
O1085     Ni1101   1.888       .  S
O1085      C1091   1.273       .  A
O1086     Ni1595   1.894       .  S
O1086      C1091   1.274       .  A
C1087      C1507   1.450       .  S
O1088     Ni1595   1.892       .  S
O1088      C1090   1.265       .  A
O1089     Ni1100   1.942       .  S
C1090      O1096   1.283       .  A
C1090      C1509   1.448       .  S
C1091      C1514   1.383       .  S
H1092      O1093   0.967       .  S
O1093     Ni1101   1.951       .  S
O1093     Ni1095   1.940       .  S
O1093     Ni1100   1.933       .  S
O1094     Ni1607   1.963   1_545  S
O1094      C1596   1.282   1_545  A
Ni1095     O1606   1.963       .  S
Ni1095     O1611   1.933       .  S
Ni1095     O1097   1.918       .  S
O1096     Ni1101   1.957       .  S
C1098      O1099   1.275       .  A
C1098      C1529   1.440       .  S
O1099     Ni1607   1.933   1_545  S
O1103     Ni1109   1.920       .  S
O1103      C1124   1.269       .  A
O1104     Ni1127   1.933       .  S
O1104      C1113   1.276       .  A
O1105     Ni1109   1.933       .  S
O1105     Ni1639   1.940   1_545  S
O1105     Ni1121   1.951       .  S
O1105      H1128   0.967       .  S
C1106      O1123   1.273   1_565  A
C1106      O1627   1.274       .  A
C1106      C2025   1.383       .  S
O1107     Ni1126   1.895       .  S
O1107      C1113   1.267       .  A
O1108     Ni1638   1.892       .  S
O1108      C1110   1.265   1_565  A
Ni1109     O1112   1.942       .  S
Ni1109     O1114   1.898       .  S
C1110      O1120   1.283       .  A
C1110      C1501   1.448       .  S
O1111     Ni1127   1.918       .  S
O1111      C1629   1.270       .  A
O1112      C1117   1.269   1_545  A
C1113      C1503   1.440       .  S
O1114      C1628   1.268   1_545  A
O1115     Ni1126   1.894       .  S
O1115      C1618   1.274       .  A
C1116      O1626   1.268       .  A
C1116      O1122   1.282       .  A
C1116      C1500   1.440       .  S
C1117      O1623   1.270       .  A
C1117      C2017   1.453       .  S
H1118      O1119   0.965       .  S
O1119     Ni1127   1.885       .  S
O1119     Ni1633   1.873       .  S
O1119     Ni1126   1.873       .  S
O1120     Ni1121   1.957       .  S
Ni1121     O1125   1.927       .  S
Ni1121     O1123   1.888       .  S
Ni1121     O1631   1.873   1_545  S
O1122     Ni1127   1.963       .  S
C1124      O1125   1.271       .  A
C1124      C1498   1.450       .  S
Ni1126     O1620   1.892       .  S
Ni1127     O1617   1.940       .  S
O1129     Ni1135   1.920       .  S
O1129      C1150   1.269       .  A
O1130     Ni1665   1.933   1_545  S
O1130      C1139   1.275       .  A
O1131     Ni1135   1.933       .  S
O1131     Ni1153   1.940       .  S
O1131     Ni1147   1.951       .  S
O1131      H1154   0.967       .  S
C1132      O1149   1.273       .  A
C1132      O1141   1.274       .  A
C1132      C1496   1.383       .  S
O1133     Ni1152   1.895       .  S
O1133      C1139   1.267       .  A
O1134     Ni1664   1.892       .  S
O1134      C1136   1.265       .  A
Ni1135     O1138   1.942       .  S
Ni1135     O1140   1.898       .  S
C1136      O1146   1.283       .  A
C1136      C1490   1.448       .  S
O1137     Ni1153   1.917       .  S
O1137      C1143   1.270       .  A
O1138      C1143   1.269       .  A
C1139      C1491   1.440       .  S
O1140      C1142   1.268       .  A
O1141     Ni1664   1.894       .  S
C1142      O1660   1.282       .  A
C1143      C1493   1.453       .  S
H1144      O1657   0.965   1_545  S
O1145     Ni1153   1.885       .  S
O1145     Ni1147   1.873       .  S
O1145     Ni1664   1.873       .  S
O1145      H1656   0.965       .  S
O1146     Ni1147   1.957       .  S
Ni1147     O1151   1.927       .  S
Ni1147     O1149   1.887       .  S
O1148     Ni1665   1.963   1_545  S
O1148      C1654   1.282   1_545  A
C1150      O1151   1.272       .  A
C1150      C1488   1.450       .  S
Ni1152     O1646   1.892   1_545  S
Ni1152     O1653   1.894       .  S
Ni1152     O1657   1.873   1_545  S
Ni1153     O1642   1.933       .  S
Ni1153     O1660   1.963       .  S
O1155     Ni1161   1.895       .  S
O1155      C1176   1.267       .  A
O1156     Ni1179   1.927       .  S
O1156      C1165   1.272       .  A
O1157     Ni1161   1.873       .  S
O1157     Ni1691   1.873       .  S
O1157     Ni1173   1.885       .  S
O1157      H1180   0.965       .  S
C1158      O1687   1.270       .  A
C1158      O1167   1.269   1_565  A
C1158      C1997   1.453       .  S
O1159     Ni1178   1.921       .  S
O1159      C1165   1.269       .  A
O1160     Ni1178   1.898       .  S
O1160      C1674   1.268   1_545  A
Ni1161     O1164   1.894       .  S
Ni1161     O1678   1.893       .  S
C1162      O1672   1.268       .  A
C1162      O1172   1.282       .  A
O1163     Ni1179   1.887       .  S
O1163      C1169   1.273   1_545  A
O1164      C1681   1.274       .  A
C1165      C1480   1.450       .  S
O1166     Ni1673   1.893       .  S
O1166      C1168   1.265   1_565  A
O1167     Ni1178   1.943       .  S
C1168      O1174   1.283       .  A
C1168      C1523   1.448       .  S
C1169      O1676   1.274       .  A
C1169      C2007   1.383   1_556  S
H1170      O1171   0.967       .  S
O1171     Ni1179   1.951       .  S
O1171     Ni1685   1.940   1_545  S
O1171     Ni1178   1.933       .  S
O1172     Ni1173   1.963       .  S
Ni1173     O1177   1.933       .  S
Ni1173     O1175   1.917       .  S
Ni1173     O1683   1.940       .  S
O1174     Ni1179   1.957       .  S
O1175      C1670   1.270       .  A
C1176      O1177   1.275       .  A
C1176      C1484   1.440       .  S
Ni1179     O1669   1.873   1_545  S
O1181     Ni1187   1.920       .  S
O1181      C1202   1.269       .  A
O1182     Ni1205   1.933       .  S
O1182      C1191   1.275       .  A
O1183     Ni1187   1.933       .  S
O1183     Ni1205   1.940       .  S
O1183     Ni1199   1.951       .  S
O1183      H1206   0.967       .  S
C1184      O1201   1.273       .  A
C1184      O1193   1.274       .  A
C1184      C1477   1.383       .  S
O1185     Ni1204   1.895       .  S
O1185      C1191   1.267       .  A
O1186     Ni1204   1.892       .  S
O1186      C1188   1.265       .  A
Ni1187     O1190   1.942       .  S
Ni1187     O1192   1.898       .  S
C1188      O1198   1.283       .  A
C1188      C1494   1.448       .  S
O1189     Ni1205   1.917       .  S
O1189      C1195   1.270       .  A
O1190      C1195   1.269       .  A
C1191      C1512   1.440       .  S
O1192      C1194   1.268       .  A
O1193     Ni1204   1.894       .  S
C1194      O1200   1.282       .  A
C1194      C1475   1.440       .  S
C1195      C1502   1.453       .  S
H1196      O1197   0.965       .  S
O1197     Ni1205   1.885       .  S
O1197     Ni1199   1.873       .  S
O1197     Ni1204   1.873       .  S
O1198     Ni1199   1.957       .  S
Ni1199     O1203   1.927       .  S
Ni1199     O1201   1.888       .  S
O1200     Ni1205   1.963       .  S
C1202      O1203   1.272       .  A
C1202      C1526   1.450       .  S
O1207     Ni1213   1.895       .  S
O1207      C1228   1.267       .  A
O1208     Ni1231   1.927       .  S
O1208      C1217   1.272       .  A
O1209     Ni1213   1.873       .  S
O1209     Ni1231   1.873       .  S
O1209     Ni1225   1.885       .  S
O1209      H1232   0.965       .  S
C1210      O1227   1.270       .  A
C1210      O1219   1.269       .  A
C1210      C1473   1.453       .  S
O1211     Ni1230   1.920       .  S
O1211      C1217   1.269       .  A
O1212     Ni1230   1.898       .  S
O1212      C1214   1.268       .  A
Ni1213     O1216   1.894       .  S
Ni1213     O1218   1.892       .  S
C1214      O1224   1.282       .  A
C1214      C1492   1.440       .  S
O1215     Ni1231   1.887       .  S
O1215      C1221   1.273       .  A
O1216      C1221   1.274       .  A
C1217      C1515   1.450       .  S
O1218      C1220   1.265       .  A
O1219     Ni1230   1.942       .  S
C1220      O1226   1.283       .  A
C1220      C1469   1.448       .  S
C1221      C1478   1.383       .  S
H1222      O1223   0.967       .  S
O1223     Ni1231   1.951       .  S
O1223     Ni1225   1.940       .  S
O1223     Ni1230   1.933       .  S
O1224     Ni1225   1.963       .  S
Ni1225     O1229   1.933       .  S
Ni1225     O1227   1.917       .  S
O1226     Ni1231   1.957       .  S
C1228      O1229   1.275       .  A
C1228      C1471   1.440       .  S
O1233     Ni1239   1.895       .  S
O1233      C1254   1.267       .  A
O1234     Ni1257   1.927       .  S
O1234      C1243   1.271       .  A
O1235     Ni1239   1.873       .  S
O1235     Ni1257   1.873       .  S
O1235     Ni1251   1.885       .  S
O1235      H1258   0.965       .  S
C1236      O1253   1.270       .  A
C1236      O1245   1.269       .  A
C1236      C1467   1.453       .  S
O1237     Ni1256   1.920       .  S
O1237      C1243   1.269       .  A
O1238     Ni1256   1.898       .  S
O1238      C1240   1.268       .  A
Ni1239     O1242   1.894       .  S
Ni1239     O1244   1.892       .  S
C1240      O1250   1.282       .  A
C1240      C1504   1.440       .  S
O1241     Ni1257   1.887       .  S
O1241      C1247   1.273       .  A
O1242      C1247   1.274       .  A
C1243      C1459   1.450       .  S
O1244      C1246   1.265       .  A
O1245     Ni1256   1.942       .  S
C1246      O1252   1.283       .  A
C1246      C1462   1.448       .  S
C1247      C1464   1.383       .  S
H1248      O1249   0.967       .  S
O1249     Ni1257   1.951       .  S
O1249     Ni1251   1.940       .  S
O1249     Ni1256   1.933       .  S
O1250     Ni1251   1.963       .  S
Ni1251     O1255   1.933       .  S
Ni1251     O1253   1.918       .  S
O1252     Ni1257   1.957       .  S
C1254      O1255   1.275       .  A
C1254      C1465   1.440       .  S
O1259     Ni1265   1.920       .  S
O1259      C1280   1.269       .  A
O1260     Ni1283   1.933       .  S
O1260      C1269   1.275       .  A
O1261     Ni1265   1.933       .  S
O1261     Ni1283   1.940       .  S
O1261     Ni1277   1.951       .  S
O1261      H1284   0.967       .  S
C1262      O1279   1.273       .  A
C1262      O1271   1.274       .  A
C1262      C1463   1.383       .  S
O1263     Ni1282   1.895       .  S
O1263      C1269   1.267       .  A
O1264     Ni1282   1.892       .  S
O1264      C1266   1.265       .  A
Ni1265     O1268   1.942       .  S
Ni1265     O1270   1.898       .  S
C1266      O1276   1.283       .  A
C1266      C1506   1.448       .  S
O1267     Ni1283   1.918       .  S
O1267      C1273   1.270       .  A
O1268      C1273   1.269       .  A
C1269      C1482   1.440       .  S
O1270      C1272   1.268       .  A
O1271     Ni1282   1.894       .  S
C1272      O1278   1.282       .  A
C1272      C1458   1.440       .  S
C1273      C1489   1.453   1_556  S
H1274      O1275   0.965       .  S
O1275     Ni1283   1.885       .  S
O1275     Ni1277   1.873       .  S
O1275     Ni1282   1.873       .  S
O1276     Ni1277   1.957       .  S
Ni1277     O1281   1.927       .  S
Ni1277     O1279   1.887       .  S
O1278     Ni1283   1.963       .  S
C1280      O1281   1.271       .  A
C1280      C1455   1.450       .  S
O1285     Ni1291   1.895       .  S
O1285      C1306   1.267       .  A
O1286     Ni1309   1.927       .  S
O1286      C1295   1.271       .  A
O1287     Ni1291   1.873       .  S
O1287     Ni1309   1.873       .  S
O1287     Ni1303   1.885       .  S
O1287      H1310   0.965       .  S
C1288      O1305   1.270       .  A
C1288      O1297   1.269       .  A
C1288      C1470   1.453       .  S
O1289     Ni1308   1.920       .  S
O1289      C1295   1.269       .  A
O1290     Ni1308   1.898       .  S
O1290      C1292   1.268       .  A
Ni1291     O1294   1.894       .  S
Ni1291     O1296   1.892       .  S
C1292      O1302   1.282       .  A
C1292      C1533   1.440       .  S
O1293     Ni1309   1.887       .  S
O1293      C1299   1.273       .  A
O1294      C1299   1.274       .  A
C1295      C1508   1.450       .  S
O1296      C1298   1.265       .  A
O1297     Ni1308   1.942       .  S
C1298      O1304   1.283       .  A
C1298      C1468   1.448       .  S
C1299      C1453   1.383       .  S
H1300      O1301   0.967       .  S
O1301     Ni1309   1.951       .  S
O1301     Ni1303   1.940       .  S
O1301     Ni1308   1.933       .  S
O1302     Ni1303   1.963       .  S
Ni1303     O1307   1.933       .  S
Ni1303     O1305   1.918       .  S
O1304     Ni1309   1.957       .  S
C1306      O1307   1.275       .  A
C1306      C1476   1.440       .  S
O1311     Ni1317   1.920       .  S
O1311      C1332   1.269       .  A
O1312     Ni1335   1.933       .  S
O1312      C1321   1.276       .  A
O1313     Ni1317   1.933       .  S
O1313     Ni1335   1.940       .  S
O1313     Ni1329   1.951       .  S
O1313      H1336   0.967       .  S
C1314      O1331   1.273       .  A
C1314      O1323   1.274       .  A
C1314      C1454   1.383       .  S
O1315     Ni1334   1.895       .  S
O1315      C1321   1.267       .  A
O1316     Ni1334   1.893       .  S
O1316      C1318   1.265       .  A
Ni1317     O1320   1.942       .  S
Ni1317     O1322   1.898       .  S
C1318      O1328   1.283       .  A
C1318      C1536   1.448       .  S
O1319     Ni1335   1.918       .  S
O1319      C1325   1.270       .  A
O1320      C1325   1.269       .  A
C1321      C1450   1.440       .  S
O1322      C1324   1.268       .  A
O1323     Ni1334   1.894       .  S
C1324      O1330   1.282       .  A
C1324      C1466   1.440       .  S
C1325      C1452   1.453       .  S
H1326      O1327   0.965       .  S
O1327     Ni1335   1.885       .  S
O1327     Ni1329   1.873       .  S
O1327     Ni1334   1.873       .  S
O1328     Ni1329   1.957       .  S
Ni1329     O1333   1.927       .  S
Ni1329     O1331   1.888       .  S
O1330     Ni1335   1.963       .  S
C1332      O1333   1.271       .  A
C1332      C1497   1.450       .  S
O1337     Ni1343   1.895       .  S
O1337      C1358   1.267       .  A
O1338     Ni1361   1.927       .  S
O1338      C1347   1.271       .  A
O1339     Ni1343   1.873       .  S
O1339     Ni1361   1.873       .  S
O1339     Ni1355   1.885       .  S
O1339      H1362   0.965       .  S
C1340      O1357   1.270       .  A
C1340      O1349   1.269       .  A
C1340      C1510   1.453       .  S
O1341     Ni1360   1.920       .  S
O1341      C1347   1.269       .  A
O1342     Ni1360   1.898       .  S
O1342      C1344   1.268       .  A
Ni1343     O1346   1.894       .  S
Ni1343     O1348   1.893       .  S
C1344      O1354   1.282       .  A
C1344      C1449   1.440       .  S
O1345     Ni1361   1.888       .  S
O1345      C1351   1.273       .  A
O1346      C1351   1.274       .  A
C1347      C1460   1.450       .  S
O1348      C1350   1.265       .  A
O1349     Ni1360   1.942       .  S
C1350      O1356   1.283       .  A
C1350      C1486   1.448       .  S
C1351      C1447   1.383       .  S
H1352      O1353   0.967       .  S
O1353     Ni1361   1.951       .  S
O1353     Ni1355   1.940       .  S
O1353     Ni1360   1.933       .  S
O1354     Ni1355   1.963       .  S
Ni1355     O1359   1.933       .  S
Ni1355     O1357   1.918       .  S
O1356     Ni1361   1.957       .  S
C1358      O1359   1.276       .  A
C1358      C1499   1.440       .  S
O1363     Ni1369   1.920       .  S
O1363      C1384   1.269       .  A
O1364     Ni1387   1.933       .  S
O1364      C1373   1.275       .  A
O1365     Ni1369   1.933       .  S
O1365     Ni1387   1.940       .  S
O1365     Ni1381   1.951       .  S
O1365      H1388   0.967       .  S
C1366      O1383   1.273       .  A
C1366      O1375   1.274       .  A
C1366      C1448   1.383       .  S
O1367     Ni1386   1.895       .  S
O1367      C1373   1.267       .  A
O1368     Ni1386   1.892       .  S
O1368      C1370   1.265       .  A
Ni1369     O1372   1.942       .  S
Ni1369     O1374   1.898       .  S
C1370      O1380   1.283       .  A
C1370      C1451   1.448       .  S
O1371     Ni1387   1.918       .  S
O1371      C1377   1.270       .  A
O1372      C1377   1.269       .  A
C1373      C1443   1.440       .  S
O1374      C1376   1.268       .  A
O1375     Ni1386   1.894       .  S
C1376      O1382   1.282       .  A
C1376      C1483   1.440       .  S
C1377      C1445   1.453   1_556  S
H1378      O1379   0.965       .  S
O1379     Ni1387   1.885       .  S
O1379     Ni1381   1.873       .  S
O1379     Ni1386   1.873       .  S
O1380     Ni1381   1.957       .  S
Ni1381     O1385   1.927       .  S
Ni1381     O1383   1.887       .  S
O1382     Ni1387   1.963       .  S
C1384      O1385   1.271       .  A
C1384      C1456   1.450       .  S
O1389     Ni1395   1.895       .  S
O1389      C1410   1.267       .  A
O1390     Ni1413   1.927       .  S
O1390      C1399   1.272       .  A
O1391     Ni1395   1.873       .  S
O1391     Ni1413   1.873       .  S
O1391     Ni1407   1.885       .  S
O1391      H1414   0.965       .  S
C1392      O1409   1.270       .  A
C1392      O1401   1.269       .  A
C1392      C1461   1.453       .  S
O1393     Ni1412   1.920       .  S
O1393      C1399   1.269       .  A
O1394     Ni1412   1.897       .  S
O1394      C1396   1.268       .  A
Ni1395     O1398   1.894       .  S
Ni1395     O1400   1.892       .  S
C1396      O1406   1.282       .  A
O1397     Ni1413   1.888       .  S
O1397      C1403   1.273       .  A
O1398      C1403   1.274       .  A
C1399      C1479   1.450       .  S
O1400      C1402   1.265       .  A
O1401     Ni1412   1.942       .  S
C1402      O1408   1.283       .  A
C1402      C1474   1.448       .  S
C1403      C1441   1.383   1_556  S
H1404      O1405   0.967       .  S
O1405     Ni1413   1.951       .  S
O1405     Ni1407   1.940       .  S
O1405     Ni1412   1.933       .  S
O1406     Ni1407   1.963       .  S
Ni1407     O1411   1.933       .  S
Ni1407     O1409   1.917       .  S
O1408     Ni1413   1.957       .  S
C1410      O1411   1.276       .  A
C1410      C1457   1.440       .  S
O1415     Ni1421   1.920       .  S
O1415      C1436   1.269       .  A
O1416     Ni1439   1.933       .  S
O1416      C1425   1.275       .  A
O1417     Ni1421   1.933       .  S
O1417     Ni1439   1.940       .  S
O1417     Ni1433   1.951       .  S
O1417      H1440   0.967       .  S
C1418      O1435   1.273       .  A
C1418      O1427   1.274       .  A
C1418      C1442   1.383       .  S
O1419     Ni1438   1.895       .  S
O1419      C1425   1.267       .  A
O1420     Ni1438   1.892       .  S
O1420      C1422   1.265       .  A
Ni1421     O1424   1.942       .  S
Ni1421     O1426   1.898       .  S
C1422      O1432   1.283       .  A
C1422      C1446   1.448       .  S
O1423     Ni1439   1.917       .  S
O1423      C1429   1.270       .  A
O1424      C1429   1.269       .  A
C1425      C1517   1.440       .  S
O1426      C1428   1.268       .  A
O1427     Ni1438   1.894       .  S
C1428      O1434   1.282       .  A
C1429      C1527   1.453       .  S
H1430      O1431   0.965       .  S
O1431     Ni1439   1.885       .  S
O1431     Ni1433   1.873       .  S
O1431     Ni1438   1.873       .  S
O1432     Ni1433   1.957       .  S
Ni1433     O1437   1.927       .  S
Ni1433     O1435   1.887       .  S
O1434     Ni1439   1.963       .  S
C1436      O1437   1.272       .  A
C1436      C1487   1.450       .  S
C1443      C1444   1.209       .  T
C1445      C1446   1.216       .  T
C1447      C1448   1.176       .  T
C1449      C1450   1.209       .  T
C1451      C1452   1.216       .  T
C1453      C1454   1.176       .  T
C1455      C1456   1.215       .  T
C1457      C1458   1.209       .  T
C1461      C1462   1.216       .  T
C1463      C1464   1.176       .  T
C1465      C1466   1.209       .  T
C1467      C1468   1.216       .  T
C1469      C1470   1.216       .  T
C1471      C1472   1.209       .  T
C1473      C1474   1.216   1_554  T
C1475      C1476   1.209       .  T
C1477      C1478   1.176       .  T
C1481      C1482   1.209       .  T
C1483      C1484   1.209       .  T
C1485      C1670   1.453       .  S
C1485      C1486   1.216       .  T
C1489      C1490   1.216       .  T
C1491      C1492   1.209       .  T
C1493      C2006   1.216       .  T
C1494      C2005   1.216   1_545  T
C1495      C1681   1.383   1_554  S
C1497      C1498   1.215       .  T
C1499      C1500   1.209       .  T
C1501      C1502   1.216       .  T
C1503      C1504   1.209       .  T
C1505      C1629   1.453       .  S
C1505      C1506   1.216       .  T
C1507      C1508   1.215       .  T
C1509      C1510   1.216       .  T
C1511      C1596   1.440   1_545  S
C1511      C1512   1.209       .  T
C1513      C1618   1.383       .  S
C1513      C1514   1.176       .  T
C1515      C1516   1.215       .  T
C1517      C1518   1.209       .  T
C1519      C2032   1.216       .  T
C1520      C2031   1.216   1_545  T
C1521      C1522   1.209       .  T
C1523      C1524   1.216   1_556  T
C1527      C1528   1.216       .  T
C1529      C1530   1.209       .  T
C1531      C1532   1.176       .  T
C1533      C1534   1.209       .  T
C1535      C1536   1.216       .  T
O1537     Ni1543   1.921       .  S
O1537      C1558   1.269       .  A
O1538     Ni1561   1.933       .  S
O1538      C1547   1.275       .  A
O1539     Ni1543   1.933       .  S
O1539     Ni1561   1.940       .  S
O1539     Ni1555   1.951       .  S
O1539      H1562   0.967       .  S
C1540      O1557   1.273       .  A
C1540      O1549   1.274       .  A
C1540      C2044   1.383       .  S
O1541     Ni1560   1.895       .  S
O1541      C1547   1.267       .  A
O1542     Ni1560   1.893       .  S
O1542      C1544   1.265       .  A
Ni1543     O1546   1.943       .  S
Ni1543     O1548   1.898       .  S
C1544      O1554   1.283       .  A
C1544      C2040   1.448       .  S
O1545     Ni1561   1.917       .  S
O1545      C1551   1.270       .  A
O1546      C1551   1.269       .  A
C1547      C2046   1.440       .  S
O1548      C1550   1.268       .  A
O1549     Ni1560   1.894       .  S
C1550      O1556   1.282       .  A
C1550      C2042   1.440       .  S
C1551      C2047   1.453       .  S
H1552      O1553   0.965       .  S
O1553     Ni1561   1.885       .  S
O1553     Ni1555   1.873       .  S
O1553     Ni1560   1.873       .  S
O1554     Ni1555   1.957       .  S
Ni1555     O1559   1.927       .  S
Ni1555     O1557   1.888       .  S
O1556     Ni1561   1.963       .  S
C1558      O1559   1.271       .  A
C1558      C2037   1.450       .  S
O1563     Ni1569   1.895       .  S
O1563      C1584   1.267       .  A
O1564     Ni1587   1.927       .  S
O1564      C1573   1.272       .  A
O1565     Ni1569   1.873       .  S
O1565     Ni1587   1.873       .  S
O1565     Ni1581   1.885       .  S
O1565      H1588   0.965       .  S
C1566      O1583   1.270       .  A
C1566      O1575   1.269       .  A
C1566      C2036   1.453       .  S
O1567     Ni1586   1.920       .  S
O1567      C1573   1.269       .  A
O1568     Ni1586   1.898       .  S
O1568      C1570   1.268       .  A
Ni1569     O1572   1.894       .  S
Ni1569     O1574   1.892       .  S
C1570      O1580   1.282       .  A
C1570      C2030   1.440       .  S
O1571     Ni1587   1.887       .  S
O1571      C1577   1.273       .  A
O1572      C1577   1.274       .  A
C1573      C2028   1.450       .  S
O1574      C1576   1.265       .  A
O1575     Ni1586   1.943       .  S
C1576      O1582   1.283       .  A
C1576      C2032   1.448       .  S
C1577      C2043   1.383       .  S
H1578      O1579   0.967       .  S
O1579     Ni1587   1.951       .  S
O1579     Ni1581   1.940       .  S
O1579     Ni1586   1.933       .  S
O1580     Ni1581   1.963       .  S
Ni1581     O1585   1.933       .  S
Ni1581     O1583   1.917       .  S
O1582     Ni1587   1.957       .  S
C1584      O1585   1.275       .  A
C1584      C2033   1.440       .  S
O1589     Ni1595   1.895       .  S
O1589      C1610   1.267       .  A
O1590     Ni1613   1.927       .  S
O1590      C1599   1.271       .  A
O1591     Ni1613   1.873       .  S
O1591     Ni1607   1.885       .  S
O1591      H1614   0.965   1_565  S
C1592      O1609   1.270       .  A
C1592      O1601   1.269       .  A
C1592      C2031   1.453       .  S
O1593     Ni1612   1.920       .  S
O1593      C1599   1.269       .  A
O1594     Ni1612   1.898       .  S
O1594      C1596   1.268       .  A
O1597     Ni1613   1.888       .  S
O1597      C1603   1.273       .  A
O1598      C1603   1.274   1_545  A
C1599      C2019   1.450       .  S
O1600      C1602   1.265       .  A
O1601     Ni1612   1.942       .  S
C1602      O1608   1.283       .  A
C1602      C2021   1.448       .  S
C1603      C2026   1.383       .  S
H1604      O1605   0.967       .  S
O1605     Ni1613   1.951       .  S
O1605     Ni1607   1.940       .  S
O1605     Ni1612   1.933       .  S
Ni1607     O1609   1.918       .  S
O1608     Ni1613   1.957       .  S
C1610      O1611   1.275       .  A
C1610      C2041   1.440       .  S
O1615     Ni1621   1.920       .  S
O1615      C1636   1.269       .  A
O1616     Ni1639   1.933       .  S
O1616      C1625   1.276       .  A
O1617     Ni1621   1.933       .  S
O1617     Ni1633   1.951       .  S
O1617      H1640   0.967       .  S
C1618      O1635   1.273       .  A
O1619     Ni1638   1.895       .  S
O1619      C1625   1.267       .  A
O1620      C1622   1.265       .  A
Ni1621     O1624   1.942       .  S
Ni1621     O1626   1.898       .  S
C1622      O1632   1.283       .  A
C1622      C2013   1.448       .  S
O1623     Ni1639   1.918       .  S
O1624      C1629   1.269       .  A
C1625      C2015   1.440       .  S
O1627     Ni1638   1.894       .  S
C1628      O1634   1.282       .  A
C1628      C2012   1.440       .  S
H1630      O1631   0.965       .  S
O1631     Ni1639   1.885       .  S
O1631     Ni1638   1.873       .  S
O1632     Ni1633   1.957       .  S
Ni1633     O1637   1.927       .  S
Ni1633     O1635   1.888       .  S
O1634     Ni1639   1.963       .  S
C1636      O1637   1.271       .  A
C1636      C2010   1.450       .  S
O1641     Ni1647   1.920       .  S
O1641      C1662   1.269       .  A
O1642      C1651   1.275       .  A
O1643     Ni1647   1.933       .  S
O1643     Ni1665   1.940       .  S
O1643     Ni1659   1.951       .  S
O1643      H1666   0.967       .  S
C1644      O1661   1.273       .  A
C1644      O1653   1.274   1_565  A
C1644      C2008   1.383       .  S
O1645     Ni1664   1.895       .  S
O1645      C1651   1.267       .  A
O1646      C1648   1.265       .  A
Ni1647     O1650   1.942       .  S
Ni1647     O1652   1.898       .  S
C1648      O1658   1.283       .  A
C1648      C2002   1.448       .  S
O1649     Ni1665   1.917       .  S
O1649      C1655   1.270       .  A
O1650      C1655   1.269       .  A
C1651      C2003   1.440       .  S
O1652      C1654   1.268       .  A
C1655      C2005   1.453       .  S
O1657     Ni1665   1.885       .  S
O1657     Ni1659   1.873       .  S
O1658     Ni1659   1.957       .  S
Ni1659     O1663   1.927       .  S
Ni1659     O1661   1.887       .  S
C1662      O1663   1.272       .  A
C1662      C2000   1.450       .  S
O1667     Ni1673   1.895       .  S
O1667      C1688   1.267       .  A
O1668     Ni1691   1.927       .  S
O1668      C1677   1.272       .  A
O1669     Ni1673   1.873       .  S
O1669     Ni1685   1.885       .  S
O1669      H1692   0.965       .  S
C1670      O1679   1.269       .  A
O1671     Ni1690   1.920       .  S
O1671      C1677   1.269       .  A
O1672     Ni1690   1.898       .  S
Ni1673     O1676   1.894       .  S
C1674      O1684   1.282       .  A
O1675     Ni1691   1.887       .  S
O1675      C1681   1.273       .  A
C1677      C1992   1.450       .  S
O1678      C1680   1.265       .  A
O1679     Ni1690   1.943       .  S
C1680      O1686   1.283       .  A
C1680      C2035   1.448       .  S
H1682      O1683   0.967       .  S
O1683     Ni1691   1.951       .  S
O1683     Ni1690   1.933       .  S
O1684     Ni1685   1.963       .  S
Ni1685     O1689   1.933       .  S
Ni1685     O1687   1.917       .  S
O1686     Ni1691   1.957       .  S
C1688      O1689   1.275       .  A
C1688      C1996   1.440       .  S
O1693     Ni1699   1.920       .  S
O1693      C1714   1.269       .  A
O1694     Ni1717   1.933       .  S
O1694      C1703   1.275       .  A
O1695     Ni1699   1.933       .  S
O1695     Ni1717   1.940       .  S
O1695     Ni1711   1.951       .  S
O1695      H1718   0.967       .  S
C1696      O1713   1.273       .  A
C1696      O1705   1.274       .  A
C1696      C1989   1.383       .  S
O1697     Ni1716   1.895       .  S
O1697      C1703   1.267       .  A
O1698     Ni1716   1.892       .  S
O1698      C1700   1.265       .  A
Ni1699     O1702   1.942       .  S
Ni1699     O1704   1.898       .  S
C1700      O1710   1.283       .  A
C1700      C2006   1.448       .  S
O1701     Ni1717   1.917       .  S
O1701      C1707   1.270       .  A
O1702      C1707   1.269       .  A
C1703      C2024   1.440       .  S
O1704      C1706   1.268       .  A
O1705     Ni1716   1.894       .  S
C1706      O1712   1.282       .  A
C1706      C1987   1.440       .  S
C1707      C2014   1.453       .  S
H1708      O1709   0.965       .  S
O1709     Ni1717   1.885       .  S
O1709     Ni1711   1.873       .  S
O1709     Ni1716   1.873       .  S
O1710     Ni1711   1.957       .  S
Ni1711     O1715   1.927       .  S
Ni1711     O1713   1.888       .  S
O1712     Ni1717   1.963       .  S
C1714      O1715   1.272       .  A
C1714      C2038   1.450       .  S
O1719     Ni1725   1.895       .  S
O1719      C1740   1.267       .  A
O1720     Ni1743   1.927       .  S
O1720      C1729   1.272       .  A
O1721     Ni1725   1.873       .  S
O1721     Ni1743   1.873       .  S
O1721     Ni1737   1.885       .  S
O1721      H1744   0.965       .  S
C1722      O1739   1.270       .  A
C1722      O1731   1.269       .  A
C1722      C1985   1.453       .  S
O1723     Ni1742   1.920       .  S
O1723      C1729   1.269       .  A
O1724     Ni1742   1.898       .  S
O1724      C1726   1.268       .  A
Ni1725     O1728   1.894       .  S
Ni1725     O1730   1.892       .  S
C1726      O1736   1.282       .  A
C1726      C2004   1.440       .  S
O1727     Ni1743   1.887       .  S
O1727      C1733   1.273       .  A
O1728      C1733   1.274       .  A
C1729      C2027   1.450       .  S
O1730      C1732   1.265       .  A
O1731     Ni1742   1.942       .  S
C1732      O1738   1.283       .  A
C1732      C1981   1.448       .  S
C1733      C1990   1.383       .  S
H1734      O1735   0.967       .  S
O1735     Ni1743   1.951       .  S
O1735     Ni1737   1.940       .  S
O1735     Ni1742   1.933       .  S
O1736     Ni1737   1.963       .  S
Ni1737     O1741   1.933       .  S
Ni1737     O1739   1.917       .  S
O1738     Ni1743   1.957       .  S
C1740      O1741   1.275       .  A
C1740      C1983   1.440       .  S
O1745     Ni1751   1.895       .  S
O1745      C1766   1.267       .  A
O1746     Ni1769   1.927       .  S
O1746      C1755   1.271       .  A
O1747     Ni1751   1.873       .  S
O1747     Ni1769   1.873       .  S
O1747     Ni1763   1.885       .  S
O1747      H1770   0.965       .  S
C1748      O1765   1.270       .  A
C1748      O1757   1.269       .  A
C1748      C1979   1.453       .  S
O1749     Ni1768   1.920       .  S
O1749      C1755   1.269       .  A
O1750     Ni1768   1.898       .  S
O1750      C1752   1.268       .  A
Ni1751     O1754   1.894       .  S
Ni1751     O1756   1.892       .  S
C1752      O1762   1.282       .  A
C1752      C2016   1.440       .  S
O1753     Ni1769   1.887       .  S
O1753      C1759   1.273       .  A
O1754      C1759   1.274       .  A
C1755      C1971   1.450       .  S
O1756      C1758   1.265       .  A
O1757     Ni1768   1.942       .  S
C1758      O1764   1.283       .  A
C1758      C1974   1.448       .  S
C1759      C1976   1.383       .  S
H1760      O1761   0.967       .  S
O1761     Ni1769   1.951       .  S
O1761     Ni1763   1.940       .  S
O1761     Ni1768   1.933       .  S
O1762     Ni1763   1.963       .  S
Ni1763     O1767   1.933       .  S
Ni1763     O1765   1.918       .  S
O1764     Ni1769   1.957       .  S
C1766      O1767   1.275       .  A
C1766      C1977   1.440       .  S
O1771     Ni1777   1.920       .  S
O1771      C1792   1.269       .  A
O1772     Ni1795   1.933       .  S
O1772      C1781   1.275       .  A
O1773     Ni1777   1.933       .  S
O1773     Ni1795   1.940       .  S
O1773     Ni1789   1.951       .  S
O1773      H1796   0.967       .  S
C1774      O1791   1.273       .  A
C1774      O1783   1.274       .  A
C1774      C1975   1.383       .  S
O1775     Ni1794   1.895       .  S
O1775      C1781   1.267       .  A
O1776     Ni1794   1.892       .  S
O1776      C1778   1.265       .  A
Ni1777     O1780   1.942       .  S
Ni1777     O1782   1.898       .  S
C1778      O1788   1.283       .  A
C1778      C2018   1.448       .  S
O1779     Ni1795   1.918       .  S
O1779      C1785   1.270       .  A
O1780      C1785   1.269       .  A
C1781      C1994   1.440       .  S
O1782      C1784   1.268       .  A
O1783     Ni1794   1.894       .  S
C1784      O1790   1.282       .  A
C1784      C1970   1.440       .  S
C1785      C2001   1.453   1_556  S
H1786      O1787   0.965       .  S
O1787     Ni1795   1.885       .  S
O1787     Ni1789   1.873       .  S
O1787     Ni1794   1.873       .  S
O1788     Ni1789   1.957       .  S
Ni1789     O1793   1.927       .  S
Ni1789     O1791   1.887       .  S
O1790     Ni1795   1.963       .  S
C1792      O1793   1.271       .  A
C1792      C1967   1.450       .  S
O1797     Ni1803   1.895       .  S
O1797      C1818   1.267       .  A
O1798     Ni1821   1.927       .  S
O1798      C1807   1.271       .  A
O1799     Ni1803   1.873       .  S
O1799     Ni1821   1.873       .  S
O1799     Ni1815   1.885       .  S
O1799      H1822   0.965       .  S
C1800      O1817   1.270       .  A
C1800      O1809   1.269       .  A
C1800      C1982   1.453       .  S
O1801     Ni1820   1.920       .  S
O1801      C1807   1.269       .  A
O1802     Ni1820   1.898       .  S
O1802      C1804   1.268       .  A
Ni1803     O1806   1.894       .  S
Ni1803     O1808   1.892       .  S
C1804      O1814   1.282       .  A
C1804      C2045   1.440       .  S
O1805     Ni1821   1.887       .  S
O1805      C1811   1.273       .  A
O1806      C1811   1.274       .  A
C1807      C2020   1.450       .  S
O1808      C1810   1.265       .  A
O1809     Ni1820   1.942       .  S
C1810      O1816   1.283       .  A
C1810      C1980   1.448       .  S
C1811      C1965   1.383       .  S
H1812      O1813   0.967       .  S
O1813     Ni1821   1.951       .  S
O1813     Ni1815   1.940       .  S
O1813     Ni1820   1.933       .  S
O1814     Ni1815   1.963       .  S
Ni1815     O1819   1.933       .  S
Ni1815     O1817   1.918       .  S
O1816     Ni1821   1.957       .  S
C1818      O1819   1.275       .  A
C1818      C1988   1.440       .  S
O1823     Ni1829   1.920       .  S
O1823      C1844   1.269       .  A
O1824     Ni1847   1.933       .  S
O1824      C1833   1.276       .  A
O1825     Ni1829   1.933       .  S
O1825     Ni1847   1.940       .  S
O1825     Ni1841   1.951       .  S
O1825      H1848   0.967       .  S
C1826      O1843   1.273       .  A
C1826      O1835   1.274       .  A
C1826      C1966   1.383       .  S
O1827     Ni1846   1.895       .  S
O1827      C1833   1.267       .  A
O1828     Ni1846   1.893       .  S
O1828      C1830   1.265       .  A
Ni1829     O1832   1.942       .  S
Ni1829     O1834   1.898       .  S
C1830      O1840   1.283       .  A
C1830      C2048   1.448       .  S
O1831     Ni1847   1.918       .  S
O1831      C1837   1.270       .  A
O1832      C1837   1.269       .  A
C1833      C1962   1.440       .  S
O1834      C1836   1.268       .  A
O1835     Ni1846   1.894       .  S
C1836      O1842   1.282       .  A
C1836      C1978   1.440       .  S
C1837      C1964   1.453       .  S
H1838      O1839   0.965       .  S
O1839     Ni1847   1.885       .  S
O1839     Ni1841   1.873       .  S
O1839     Ni1846   1.873       .  S
O1840     Ni1841   1.957       .  S
Ni1841     O1845   1.927       .  S
Ni1841     O1843   1.888       .  S
O1842     Ni1847   1.963       .  S
C1844      O1845   1.271       .  A
C1844      C2009   1.450       .  S
O1849     Ni1855   1.895       .  S
O1849      C1870   1.267       .  A
O1850     Ni1873   1.927       .  S
O1850      C1859   1.271       .  A
O1851     Ni1855   1.873       .  S
O1851     Ni1873   1.873       .  S
O1851     Ni1867   1.885       .  S
O1851      H1874   0.965       .  S
C1852      O1869   1.270       .  A
C1852      O1861   1.269       .  A
C1852      C2022   1.453       .  S
O1853     Ni1872   1.920       .  S
O1853      C1859   1.269       .  A
O1854     Ni1872   1.898       .  S
O1854      C1856   1.268       .  A
Ni1855     O1858   1.894       .  S
Ni1855     O1860   1.893       .  S
C1856      O1866   1.282       .  A
C1856      C1961   1.440       .  S
O1857     Ni1873   1.888       .  S
O1857      C1863   1.273       .  A
O1858      C1863   1.274       .  A
C1859      C1972   1.450       .  S
O1860      C1862   1.265       .  A
O1861     Ni1872   1.942       .  S
C1862      O1868   1.283       .  A
C1862      C1998   1.448       .  S
C1863      C1959   1.383       .  S
H1864      O1865   0.967       .  S
O1865     Ni1873   1.951       .  S
O1865     Ni1867   1.940       .  S
O1865     Ni1872   1.933       .  S
O1866     Ni1867   1.963       .  S
Ni1867     O1871   1.933       .  S
Ni1867     O1869   1.918       .  S
O1868     Ni1873   1.957       .  S
C1870      O1871   1.276       .  A
C1870      C2011   1.440       .  S
O1875     Ni1881   1.920       .  S
O1875      C1896   1.269       .  A
O1876     Ni1899   1.933       .  S
O1876      C1885   1.275       .  A
O1877     Ni1881   1.933       .  S
O1877     Ni1899   1.940       .  S
O1877     Ni1893   1.951       .  S
O1877      H1900   0.967       .  S
C1878      O1895   1.273       .  A
C1878      O1887   1.274       .  A
C1878      C1960   1.383       .  S
O1879     Ni1898   1.895       .  S
O1879      C1885   1.267       .  A
O1880     Ni1898   1.892       .  S
O1880      C1882   1.265       .  A
Ni1881     O1884   1.942       .  S
Ni1881     O1886   1.898       .  S
C1882      O1892   1.283       .  A
C1882      C1963   1.448       .  S
O1883     Ni1899   1.918       .  S
O1883      C1889   1.270       .  A
O1884      C1889   1.269       .  A
C1885      C1955   1.440       .  S
O1886      C1888   1.268       .  A
O1887     Ni1898   1.894       .  S
C1888      O1894   1.282       .  A
C1888      C1995   1.440       .  S
C1889      C1957   1.453   1_556  S
H1890      O1891   0.965       .  S
O1891     Ni1899   1.885       .  S
O1891     Ni1893   1.873       .  S
O1891     Ni1898   1.873       .  S
O1892     Ni1893   1.957       .  S
Ni1893     O1897   1.927       .  S
Ni1893     O1895   1.887       .  S
O1894     Ni1899   1.963       .  S
C1896      O1897   1.271       .  A
C1896      C1968   1.450       .  S
O1901     Ni1907   1.895       .  S
O1901      C1922   1.267       .  A
O1902     Ni1925   1.927       .  S
O1902      C1911   1.272       .  A
O1903     Ni1907   1.873       .  S
O1903     Ni1925   1.873       .  S
O1903     Ni1919   1.885       .  S
O1903      H1926   0.965       .  S
C1904      O1921   1.270       .  A
C1904      O1913   1.269       .  A
C1904      C1973   1.453       .  S
O1905     Ni1924   1.920       .  S
O1905      C1911   1.269       .  A
O1906     Ni1924   1.897       .  S
O1906      C1908   1.268       .  A
Ni1907     O1910   1.894       .  S
Ni1907     O1912   1.892       .  S
C1908      O1918   1.282       .  A
O1909     Ni1925   1.888       .  S
O1909      C1915   1.273       .  A
O1910      C1915   1.274       .  A
C1911      C1991   1.450       .  S
O1912      C1914   1.265       .  A
O1913     Ni1924   1.942       .  S
C1914      O1920   1.283       .  A
C1914      C1986   1.448       .  S
C1915      C1953   1.383   1_556  S
H1916      O1917   0.967       .  S
O1917     Ni1925   1.951       .  S
O1917     Ni1919   1.940       .  S
O1917     Ni1924   1.933       .  S
O1918     Ni1919   1.963       .  S
Ni1919     O1923   1.933       .  S
Ni1919     O1921   1.917       .  S
O1920     Ni1925   1.957       .  S
C1922      O1923   1.276       .  A
C1922      C1969   1.440       .  S
O1927     Ni1933   1.920       .  S
O1927      C1948   1.269       .  A
O1928     Ni1951   1.933       .  S
O1928      C1937   1.275       .  A
O1929     Ni1933   1.933       .  S
O1929     Ni1951   1.940       .  S
O1929     Ni1945   1.951       .  S
O1929      H1952   0.967       .  S
C1930      O1947   1.273       .  A
C1930      O1939   1.274       .  A
C1930      C1954   1.383       .  S
O1931     Ni1950   1.895       .  S
O1931      C1937   1.267       .  A
O1932     Ni1950   1.892       .  S
O1932      C1934   1.265       .  A
Ni1933     O1936   1.942       .  S
Ni1933     O1938   1.898       .  S
C1934      O1944   1.283       .  A
C1934      C1958   1.448       .  S
O1935     Ni1951   1.917       .  S
O1935      C1941   1.270       .  A
O1936      C1941   1.269       .  A
C1937      C2029   1.440       .  S
O1938      C1940   1.268       .  A
O1939     Ni1950   1.894       .  S
C1940      O1946   1.282       .  A
C1941      C2039   1.453       .  S
H1942      O1943   0.965       .  S
O1943     Ni1951   1.885       .  S
O1943     Ni1945   1.873       .  S
O1943     Ni1950   1.873       .  S
O1944     Ni1945   1.957       .  S
Ni1945     O1949   1.927       .  S
Ni1945     O1947   1.887       .  S
O1946     Ni1951   1.963       .  S
C1948      O1949   1.272       .  A
C1948      C1999   1.450       .  S
C1955      C1956   1.209       .  T
C1957      C1958   1.216       .  T
C1959      C1960   1.176       .  T
C1961      C1962   1.209       .  T
C1963      C1964   1.216       .  T
C1965      C1966   1.176       .  T
C1967      C1968   1.215       .  T
C1969      C1970   1.209       .  T
C1973      C1974   1.216       .  T
C1975      C1976   1.176       .  T
C1977      C1978   1.209       .  T
C1979      C1980   1.216       .  T
C1981      C1982   1.216       .  T
C1983      C1984   1.209       .  T
C1985      C1986   1.216   1_554  T
C1987      C1988   1.209       .  T
C1989      C1990   1.176       .  T
C1993      C1994   1.209       .  T
C1995      C1996   1.209       .  T
C1997      C1998   1.216       .  T
C2001      C2002   1.216       .  T
C2003      C2004   1.209       .  T
C2009      C2010   1.215       .  T
C2011      C2012   1.209       .  T
C2013      C2014   1.216       .  T
C2015      C2016   1.209       .  T
C2017      C2018   1.216       .  T
C2019      C2020   1.215       .  T
C2021      C2022   1.216       .  T
C2023      C2024   1.209       .  T
C2025      C2026   1.176       .  T
C2027      C2028   1.215       .  T
C2029      C2030   1.209       .  T
C2033      C2034   1.209       .  T
C2035      C2036   1.216   1_556  T
C2039      C2040   1.216       .  T
C2041      C2042   1.209       .  T
C2043      C2044   1.176       .  T
C2045      C2046   1.209       .  T
C2047      C2048   1.216       .  T
