geometry optimzed in LAMMPS
_audit_creation_date              2020-12-01 
_audit_creation_method            'lammps2cif' 
_symmetry_space_group_name_H-M    'P1' 
_symmetry_Int_Tables_number       1 
_symmetry_cell_setting            triclinic 
loop_ 
_symmetry_equiv_pos_as_xyz 
  x,y,z 
_cell_length_a                    51.5737958 
_cell_length_b                    51.40682022153018 
_cell_length_c                    28.519302119226467 
_cell_angle_alpha                 90.38258231279642 
_cell_angle_beta                  89.89954908930426 
_cell_angle_gamma                 90.07380649777853 
loop_ 
_atom_site_label 
_atom_site_type_symbol 
_atom_site_fract_x 
_atom_site_fract_y 
_atom_site_fract_z 
_atom_site_charge 
Fe1        Fe  0.42414802  0.89613857  0.82489880     1.65800
Fe2        Fe  0.40240982  0.83784319  0.86439575     1.73200
Fe3        Fe  0.45709883  0.84035545  0.79942087     1.54400
O4          O  0.44541307  0.85428002  0.73507705    -0.81400
O5          O  0.43088674  0.81383523  0.89230356    -0.79700
O6          O  0.43363126  0.89505979  0.75408869    -0.83900
O7          O  0.46224987  0.90318161  0.84246750    -0.78800
O8          O  0.43680045  0.80594256  0.78693994    -0.80600
O9          O  0.40647817  0.86098637  0.92248688    -0.83300
C10         C  0.48244152  0.89406774  0.82311495     0.97500
C11         C  0.43905397  0.87738746  0.72405828     1.04900
O12         O  0.42786325  0.85830572  0.82976328    -1.12300
O13         O  0.37043078  0.85884430  0.84158930    -0.74700
O14         O  0.38547987  0.89423415  0.80623029    -0.78200
O15         O  0.48292261  0.87150484  0.80481629    -0.78900
C16         C  0.36693640  0.87946097  0.81817139     0.96400
O17         O  0.41422774  0.90093175  0.89527224    -0.76900
O18         O  0.39616148  0.81295843  0.80906478    -0.82000
C19         C  0.45556233  0.81294493  0.89221622     0.99000
C20         C  0.41312831  0.79923493  0.78867481     1.04900
O21         O  0.46950337  0.82545177  0.86306123    -0.77700
C22         C  0.40926396  0.88527904  0.92849649     1.03200
Fe23       Fe  0.41334913  0.61707691  0.19984048     1.65800
Fe24       Fe  0.40002792  0.67372237  0.15097344     1.73200
Fe25       Fe  0.45089198  0.66950588  0.22638094     1.54400
O26         O  0.44099589  0.64992987  0.28836531    -0.81400
O27         O  0.43180180  0.68465381  0.11249494    -0.79700
O28         O  0.40746169  0.62402593  0.26936244    -0.83900
O29         O  0.45097622  0.60589333  0.21355523    -0.78800
O30         O  0.42861059  0.70041018  0.25005438    -0.80600
O31         O  0.39413616  0.64266572  0.10539919    -0.83300
C32         C  0.47344207  0.61591439  0.21399569     0.97500
C33         C  0.42161605  0.63566368  0.29925792     1.04900
O34         O  0.42196400  0.65356950  0.19212174    -1.12300
O35         O  0.36715997  0.66431560  0.18857366    -0.74700
O36         O  0.37366119  0.62176106  0.18927915    -0.78200
O37         O  0.47703038  0.64014673  0.20831022    -0.78900
C38         C  0.35889255  0.64133006  0.19377504     0.96400
O39         O  0.41848631  0.60958302  0.12943762    -0.76900
O40         O  0.40197962  0.70725537  0.19020520    -0.82000
C41         C  0.45343576  0.69393739  0.12591290     0.99000
C42         C  0.41165043  0.71388129  0.22921599     1.04900
O43         O  0.46234565  0.69118470  0.16745410    -0.77700
C44         C  0.40415884  0.62033696  0.09909018     1.03200
Fe45       Fe  0.37577921  0.57243509  0.70264929     1.65800
Fe46       Fe  0.31770405  0.59382990  0.66197888     1.73200
Fe47       Fe  0.31997616  0.53969096  0.72705666     1.54400
O48         O  0.35178055  0.51426232  0.72706146    -0.81400
O49         O  0.29243440  0.60016956  0.71680558    -0.79700
O50         O  0.38270042  0.53407168  0.68702519    -0.83900
O51         O  0.37374000  0.56433559  0.77395537    -0.78800
O52         O  0.30645933  0.52589841  0.66295494    -0.80600
O53         O  0.33818554  0.62603181  0.68551945    -0.83300
C54         C  0.35535545  0.56031165  0.80304061     0.97500
C55         C  0.37467830  0.51497582  0.71070106     1.04900
O56         O  0.33810030  0.56865751  0.69667141    -1.12300
O57         O  0.34151451  0.59042702  0.60471760    -0.74700
O58         O  0.38107480  0.58133057  0.63227696    -0.78200
O59         O  0.33244555  0.55375168  0.79101473    -0.78900
C60         C  0.36577919  0.58753967  0.59922656     0.96400
O61         O  0.37425284  0.61143690  0.71902369    -0.76900
O62         O  0.29426909  0.56445750  0.63390975    -0.82000
C63         C  0.27811322  0.58298773  0.73485187     0.99000
C64         C  0.29333605  0.53964402  0.63438806     1.04900
O65         O  0.28473521  0.55923502  0.73557916    -0.77700
C66         C  0.35923487  0.62976745  0.70750675     1.03200
Fe67       Fe  0.09633487  0.58614915  0.32848553     1.65800
Fe68       Fe  0.15237541  0.60305755  0.37680355     1.73200
Fe69       Fe  0.15019831  0.55128764  0.30136001     1.54400
O70         O  0.12201826  0.52357504  0.31766128    -0.81400
O71         O  0.18563631  0.60363507  0.33647898    -0.79700
O72         O  0.08695089  0.54823490  0.31302867    -0.83900
O73         O  0.10271518  0.59263110  0.25933547    -0.78800
O74         O  0.17160379  0.54033198  0.36100963    -0.80600
O75         O  0.14056864  0.63535493  0.34022065    -0.83300
C76         C  0.11508723  0.57945943  0.22888003     0.97500
C77         C  0.09783015  0.52623175  0.31116521     1.04900
O78         O  0.13318461  0.57963304  0.33584755    -1.12300
O79         O  0.12134411  0.60654208  0.42311893    -0.74700
O80         O  0.08947771  0.58037519  0.39878314    -0.78200
O81         O  0.13058452  0.56090328  0.23902290    -0.78900
C82         C  0.09968522  0.59517212  0.42945803     0.96400
O83         O  0.09873052  0.62587577  0.33997242    -0.76900
O84         O  0.16563026  0.57201156  0.41467237    -0.82000
C85         C  0.19277590  0.59311135  0.29834452     0.99000
C86         C  0.17434873  0.54986108  0.40233724     1.04900
O87         O  0.18023461  0.57477551  0.27893750    -0.77700
C88         C  0.11714393  0.64192101  0.33493411     1.03200
Fe89       Fe  0.05738996  0.90428148  0.19722323     1.65800
Fe90       Fe  0.07605492  0.84529950  0.16030657     1.73200
Fe91       Fe  0.02255197  0.85055384  0.23163183     1.54400
O92         O  0.03242647  0.87143644  0.29256615    -0.81400
O93         O  0.04579160  0.82860616  0.12411321    -0.79700
O94         O  0.05876161  0.90360792  0.26859309    -0.83900
O95         O  0.01881557  0.91351766  0.19928991    -0.78800
O96         O  0.04447517  0.81989661  0.25639255    -0.80600
O97         O  0.08028953  0.87226273  0.10804910    -0.83300
C98         C  0.99713078  0.90279522  0.20678916     0.97500
C99         C  0.04782234  0.89047129  0.30056013     1.04900
O100        O  0.05156918  0.86659199  0.19630462    -1.12300
O101        O  0.10769035  0.86002629  0.19551269    -0.74700
O102        O  0.09764941  0.90197922  0.19704835    -0.78200
O103        O  0.99496399  0.87860632  0.21440111    -0.78900
C104        C  0.11374319  0.88360915  0.20238730     0.96400
O105        O  0.05662004  0.90715666  0.12524856    -0.76900
O106        O  0.07696085  0.81528426  0.20600041    -0.82000
C107        C  0.02268764  0.82197184  0.13441733     0.99000
C108        C  0.06433610  0.80804284  0.24131661     1.04900
O109        O  0.01148624  0.82800811  0.17310796    -0.77700
C110        C  0.07077703  0.89412330  0.09741812     1.03200
Fe111      Fe  0.05241186  0.62222673  0.82389083     1.65800
Fe112      Fe  0.07400717  0.68053811  0.86409802     1.73200
Fe113      Fe  0.01874604  0.67748594  0.80218138     1.54400
O114        O  0.03079657  0.66453763  0.73739121    -0.81400
O115        O  0.04544935  0.70474017  0.89259188    -0.79700
O116        O  0.04130631  0.62323364  0.75379936    -0.83900
O117        O  0.01494096  0.61503913  0.84498466    -0.78800
O118        O  0.03849720  0.71252156  0.79088401    -0.80600
O119        O  0.07049204  0.65756827  0.92196038    -0.83300
C120        C  0.99432426  0.62347312  0.82648833     0.97500
C121        C  0.03694137  0.64153711  0.72494012     1.04900
O122        O  0.04843147  0.65986589  0.83039711    -1.12300
O123        O  0.10585334  0.65924568  0.84054433    -0.74700
O124        O  0.09050389  0.62471285  0.80211411    -0.78200
O125        O  0.99338420  0.64564006  0.80708215    -0.78900
C126        C  0.10917795  0.63899830  0.81545116     0.96400
O127        O  0.06414468  0.61752120  0.89303456    -0.76900
O128        O  0.07964223  0.70497653  0.80833834    -0.82000
C129        C  0.02073298  0.70496659  0.89431268     0.99000
C130        C  0.06227773  0.71905767  0.79036069     1.04900
O131        O  0.00662033  0.69137407  0.86691233    -0.77700
C132        C  0.06894406  0.63310919  0.92676783     1.03200
Fe133      Fe  0.37996900  0.93323304  0.33193731     1.65800
Fe134      Fe  0.32331405  0.91736279  0.37872779     1.73200
Fe135      Fe  0.32680969  0.96896715  0.30430834     1.54400
O136        O  0.35590368  0.99588202  0.31906787    -0.81400
O137        O  0.29006640  0.91752950  0.33870002    -0.79700
O138        O  0.39062993  0.97072544  0.31611630    -0.83900
O139        O  0.37420772  0.92634993  0.26245173    -0.78800
O140        O  0.30656054  0.98110274  0.36466719    -0.80600
O141        O  0.33493770  0.88497719  0.34123385    -0.83300
C142        C  0.36168345  0.93903483  0.23183320     0.97500
C143        C  0.38005265  0.99279946  0.31312359     1.04900
O144        O  0.34309207  0.94039564  0.33844307    -1.12300
O145        O  0.35407597  0.91306214  0.42527649    -0.74700
O146        O  0.38592245  0.93950630  0.40237712    -0.78200
O147        O  0.34569127  0.95738143  0.24177180    -0.78900
C148        C  0.37579866  0.92424963  0.43209434     0.96400
O149        O  0.37691254  0.89364238  0.34413315    -0.76900
O150        O  0.31031193  0.94872683  0.41710976    -0.82000
C151        C  0.28219022  0.92933335  0.30266986     0.99000
C152        C  0.30274167  0.97132581  0.40532373     1.04900
O153        O  0.29500848  0.94739503  0.28347032    -0.77700
C154        C  0.35835030  0.87783990  0.33832716     1.03200
Fe155      Fe  0.10039632  0.94579292  0.70645417     1.65800
Fe156      Fe  0.15740458  0.92385079  0.66183587     1.73200
Fe157      Fe  0.15672322  0.97755305  0.72970228     1.54400
O158        O  0.12538416  0.00366012  0.72888273    -0.81400
O159        O  0.18318870  0.91633827  0.71518714    -0.79700
O160        O  0.09424875  0.98387378  0.68875519    -0.83900
O161        O  0.10261238  0.95548427  0.77722600    -0.78800
O162        O  0.17021233  0.99127670  0.66615201    -0.80600
O163        O  0.13603966  0.89197708  0.68461954    -0.83300
C164        C  0.12134082  0.95829548  0.80589120     0.97500
C165        C  0.10304281  0.00364028  0.71004320     1.04900
O166        O  0.13800386  0.94901211  0.69897110    -1.12300
O167        O  0.13334188  0.92907661  0.60553959    -0.74700
O168        O  0.09412678  0.93557752  0.63689157    -0.78200
O169        O  0.14439789  0.96374896  0.79346651    -0.78900
C170        C  0.10893203  0.93132499  0.60204084     0.96400
O171        O  0.10203763  0.90714688  0.72460558    -0.76900
O172        O  0.18129036  0.95282931  0.63440924    -0.82000
C173        C  0.19779580  0.93312451  0.73415341     0.99000
C174        C  0.18253436  0.97760613  0.63608398     1.04900
O175        O  0.19138910  0.95693473  0.73709081    -0.77700
C176        C  0.11600507  0.88853712  0.70986794     1.03200
Fe177      Fe  0.59811840  0.43950739  0.34363766     1.65800
Fe178      Fe  0.65615355  0.42180791  0.38393741     1.73200
Fe179      Fe  0.65173311  0.47399802  0.30944234     1.54400
O180        O  0.63212153  0.46259890  0.24843463    -0.81400
O181        O  0.67173207  0.45323059  0.41954326    -0.79700
O182        O  0.60030856  0.43582617  0.27267807    -0.83900
O183        O  0.58835231  0.47771160  0.33676232    -0.78800
O184        O  0.68342913  0.45214940  0.28798557    -0.80600
O185        O  0.62775476  0.41840546  0.43471650    -0.83300
C186        C  0.59877228  0.49940934  0.32834141     0.97500
C187        C  0.61344450  0.44678268  0.24061863     1.04900
O188        O  0.63553438  0.44548062  0.34554709    -1.12300
O189        O  0.64219087  0.38894902  0.35007572    -0.74700
O190        O  0.60047356  0.39929570  0.34875855    -0.78200
O191        O  0.62308385  0.50187079  0.32308953    -0.78900
C192        C  0.61854996  0.38270476  0.34525234     0.96400
O193        O  0.59421217  0.44315175  0.41506483    -0.76900
O194        O  0.68762565  0.42043711  0.33987803    -0.82000
C195        C  0.67836244  0.47615127  0.40756852     0.99000
C196        C  0.69563314  0.43299997  0.30484292     1.04900
O197        O  0.67270236  0.48637024  0.36812664    -0.77700
C198        C  0.60605793  0.42884390  0.44389070     1.03200
Fe199      Fe  0.87599393  0.43736394  0.70466378     1.65800
Fe200      Fe  0.82119021  0.42428664  0.64848251     1.73200
Fe201      Fe  0.82173918  0.47040775  0.73412027     1.54400
O202        O  0.84114310  0.45905969  0.79502665    -0.81400
O203        O  0.81082104  0.45793047  0.61497578    -0.79700
O204        O  0.86857291  0.42763449  0.77230577    -0.83900
O205        O  0.88494694  0.47482923  0.72601838    -0.78800
O206        O  0.79266642  0.44433251  0.75207621    -0.80600
O207        O  0.85362600  0.42117529  0.60523309    -0.83300
C208        C  0.87374465  0.49669617  0.72984922     0.97500
C209        C  0.85637167  0.44015970  0.80376310     1.04900
O210        O  0.83955752  0.44452065  0.69558182    -1.12300
O211        O  0.83079338  0.38966347  0.68106408    -0.74700
O212        O  0.87286504  0.39817358  0.68712693    -0.78200
O213        O  0.84956605  0.49931778  0.72241711    -0.78900
C214        C  0.85399057  0.38228523  0.68762371     0.96400
O215        O  0.88440929  0.44635321  0.63614726    -0.76900
O216        O  0.78603944  0.42416960  0.68399637    -0.82000
C217        C  0.79916175  0.47745261  0.63266438     0.99000
C218        C  0.77896047  0.43016471  0.72528121     1.04900
O219        O  0.80005202  0.48333785  0.67633305    -0.77700
C220        C  0.87549090  0.43256270  0.60285619     1.03200
Fe221      Fe  0.92187871  0.40079727  0.20617650     1.65800
Fe222      Fe  0.90025928  0.34115838  0.17186637     1.73200
Fe223      Fe  0.95508237  0.34596901  0.23667021     1.54400
O224        O  0.98096123  0.37670573  0.22677288    -0.81400
O225        O  0.89455473  0.31756834  0.22830504    -0.79700
O226        O  0.95990662  0.40711507  0.18719037    -0.83900
O227        O  0.93151032  0.40247403  0.27663507    -0.78800
O228        O  0.96726788  0.32812729  0.17476662    -0.80600
O229        O  0.86858254  0.36223148  0.19545732    -0.83300
C230        C  0.93712520  0.38609162  0.30832879     0.97500
C231        C  0.98023961  0.39869214  0.20682721     1.04900
O232        O  0.92575381  0.36277395  0.20461424    -1.12300
O233        O  0.90283023  0.36280401  0.11217459    -0.74700
O234        O  0.91117509  0.40337433  0.13628595    -0.78200
O235        O  0.94387690  0.36273379  0.29954919    -0.78900
C236        C  0.90502634  0.38695753  0.10472133     0.96400
O237        O  0.88333967  0.39949144  0.22552397    -0.76900
O238        O  0.92879894  0.31711840  0.14398611    -0.82000
C239        C  0.91101866  0.30559751  0.25262956     0.99000
C240        C  0.95342998  0.31575690  0.14502814     1.04900
O241        O  0.93464238  0.31245752  0.25459097    -0.77700
C242        C  0.86504199  0.38377541  0.21645067     1.03200
Fe243      Fe  0.92103477  0.12001269  0.82713680     1.65800
Fe244      Fe  0.89771285  0.17820816  0.86707532     1.73200
Fe245      Fe  0.95194108  0.17689405  0.80091441     1.54400
O246        O  0.97855124  0.14632842  0.80362492    -0.81400
O247        O  0.89089941  0.20396057  0.81398713    -0.79700
O248        O  0.95950257  0.11429783  0.84234010    -0.83900
O249        O  0.92965378  0.12106440  0.75622867    -0.78800
O250        O  0.96455918  0.19222304  0.86448109    -0.80600
O251        O  0.86669838  0.15730599  0.84084247    -0.83300
C252        C  0.93435533  0.13878818  0.72636709     0.97500
C253        C  0.97848414  0.12331952  0.81941234     1.04900
O254        O  0.92353450  0.15818133  0.83195412    -1.12300
O255        O  0.90114968  0.15459432  0.92388832    -0.74700
O256        O  0.91215943  0.11509626  0.89762714    -0.78200
O257        O  0.93981940  0.16223688  0.73729285    -0.78900
C258        C  0.90555327  0.13066868  0.93029995     0.96400
O259        O  0.88221047  0.12047605  0.81021880    -0.76900
O260        O  0.92608030  0.20175023  0.89717892    -0.82000
C261        C  0.90715178  0.21729751  0.79146266     0.99000
C262        C  0.95072758  0.20343719  0.89575822     1.04900
O263        O  0.93086004  0.21085016  0.78867232    -0.77700
C264        C  0.86372789  0.13598826  0.81888935     1.03200
Fe265      Fe  0.59819113  0.08318642  0.70505970     1.65800
Fe266      Fe  0.65293383  0.09781674  0.64847455     1.73200
Fe267      Fe  0.65198813  0.04755672  0.72687485     1.54400
O268        O  0.63495523  0.05940205  0.79066331    -0.81400
O269        O  0.66712388  0.06562295  0.61287981    -0.79700
O270        O  0.60750811  0.09179692  0.77284294    -0.83900
O271        O  0.58869999  0.04600163  0.72484455    -0.78800
O272        O  0.68367472  0.07013330  0.74341175    -0.80600
O273        O  0.62108384  0.09811762  0.60382824    -0.83300
C274        C  0.59894163  0.02369179  0.72502572     0.97500
C275        C  0.62057689  0.07869800  0.80214883     1.04900
O276        O  0.63465629  0.07580235  0.69305522    -1.12300
O277        O  0.64098663  0.13218373  0.68066890    -0.74700
O278        O  0.59957831  0.12239463  0.68938209    -0.78200
O279        O  0.62265854  0.02035539  0.71508308    -0.78900
C280        C  0.61772233  0.13891804  0.68813561     0.96400
O281        O  0.58885901  0.07517519  0.63653028    -0.76900
O282        O  0.68643339  0.10041434  0.68796987    -0.82000
C283        C  0.67514276  0.04339475  0.62586026     0.99000
C284        C  0.69529922  0.08881792  0.72361366     1.04900
O285        O  0.67130072  0.03430489  0.66682617    -0.77700
C286        C  0.59884855  0.08728812  0.60224352     1.03200
Fe287      Fe  0.87562124  0.08436284  0.33353992     1.65800
Fe288      Fe  0.81929076  0.09968023  0.38332535     1.73200
Fe289      Fe  0.82198847  0.04982284  0.30318811     1.54400
O290        O  0.84171820  0.06104277  0.24211717    -0.81400
O291        O  0.80580633  0.06722543  0.41814785    -0.79700
O292        O  0.87020180  0.09184129  0.26430940    -0.83900
O293        O  0.88512057  0.04668650  0.31729639    -0.78800
O294        O  0.79167603  0.07334401  0.28303863    -0.80600
O295        O  0.84994620  0.10253551  0.42990718    -0.83300
C296        C  0.87442337  0.02467118  0.31295494     0.97500
C297        C  0.85793146  0.07918221  0.23307212     1.04900
O298        O  0.83873357  0.07757469  0.34005822    -1.12300
O299        O  0.83130692  0.13359517  0.35076727    -0.74700
O300        O  0.87309445  0.12391938  0.34687326    -0.78200
O301        O  0.85009662  0.02174253  0.31678291    -0.78900
C302        C  0.85481125  0.14032261  0.34574697     0.96400
O303        O  0.88198214  0.07738531  0.40332406    -0.76900
O304        O  0.78638569  0.10089160  0.34277441    -0.82000
C305        C  0.79708367  0.04552201  0.40312672     0.99000
C306        C  0.77907845  0.09098125  0.30426124     1.04900
O307        O  0.80049914  0.03721594  0.36121475    -0.77700
C308        C  0.87191870  0.09172733  0.43469796     1.03200
Fe309      Fe  0.55682030  0.39880944  0.83175299     1.65800
Fe310      Fe  0.57517867  0.34238518  0.88185818     1.73200
Fe311      Fe  0.52254112  0.34349558  0.81187877     1.54400
O312        O  0.49751735  0.37563437  0.81556884    -0.81400
O313        O  0.58333090  0.31598451  0.82935047    -0.79700
O314        O  0.51924134  0.40818231  0.84959662    -0.83900
O315        O  0.54610809  0.39663991  0.76225429    -0.78800
O316        O  0.50837801  0.32989477  0.87518440    -0.80600
O317        O  0.60819036  0.36324104  0.86179405    -0.83300
C318        C  0.54159759  0.37804467  0.73400700     0.97500
C319        C  0.49871967  0.39884441  0.83147987     1.04900
O320        O  0.55129546  0.36168276  0.84223212    -1.12300
O321        O  0.56832441  0.36749910  0.93632519    -0.74700
O322        O  0.56836350  0.40605726  0.90069958    -0.78200
O323        O  0.53548527  0.35530163  0.74710099    -0.78900
C324        C  0.56933628  0.39213930  0.93736665     0.96400
O325        O  0.59450280  0.39248612  0.81038292    -0.76900
O326        O  0.54597098  0.31842723  0.90776807    -0.82000
C327        C  0.56725081  0.30268997  0.80558244     0.99000
C328        C  0.52137848  0.31712598  0.90504239     1.04900
O329        O  0.54349366  0.30907814  0.80186324    -0.77700
C330        C  0.61251400  0.37972929  0.82969451     1.03200
Fe331      Fe  0.55386747  0.11921737  0.20527704     1.65800
Fe332      Fe  0.57460966  0.17861643  0.16935847     1.73200
Fe333      Fe  0.52045650  0.17415138  0.23669316     1.54400
O334        O  0.49479470  0.14287378  0.22787417    -0.81400
O335        O  0.57989464  0.20429797  0.22371980    -0.79700
O336        O  0.51598877  0.11256613  0.18748982    -0.83900
O337        O  0.54514854  0.11843796  0.27595594    -0.78800
O338        O  0.50734394  0.19118985  0.17531534    -0.80600
O339        O  0.60655708  0.15896011  0.19464739    -0.83300
C340        C  0.54003306  0.13519657  0.30761710     0.97500
C341        C  0.49568417  0.12082815  0.20750939     1.04900
O342        O  0.54966904  0.15725621  0.20349565    -1.12300
O343        O  0.57316792  0.15526091  0.11101589    -0.74700
O344        O  0.56370972  0.11525693  0.13539284    -0.78200
O345        O  0.53274934  0.15831526  0.29898185    -0.78900
C346        C  0.57056013  0.13107525  0.10380567     0.96400
O347        O  0.59249488  0.12101090  0.22255048    -0.76900
O348        O  0.54509909  0.20053176  0.13990107    -0.82000
C349        C  0.56376134  0.21591051  0.24968078     0.99000
C350        C  0.52048948  0.20201694  0.14292957     1.04900
O351        O  0.54048783  0.20822056  0.25390455    -0.77700
C352        C  0.61040650  0.13721099  0.21417025     1.03200
C353        C  0.49703607  0.28118236  0.00157487     0.20600
C354        C  0.49286679  0.27720882  0.04980953    -0.39300
C355        C  0.49621940  0.25157887  0.06575971     0.19600
C356        C  0.50323773  0.23149886  0.03573968     0.22200
C357        C  0.50712774  0.23539776  0.98763954    -0.39800
C358        C  0.50377783  0.26090361  0.97179235     0.21000
N359        N  0.49968016  0.30417506  0.97957565    -0.33100
C360        C  0.50822733  0.29841624  0.93570981    -0.10600
C361        C  0.51080781  0.27164702  0.92957829    -0.29400
N362        N  0.50992947  0.21029063  0.06007999    -0.46000
C363        C  0.50726743  0.21667374  0.10596636    -0.05300
C364        C  0.49843082  0.24221713  0.11099155    -0.22700
H365        H  0.48935240  0.29324526  0.07376039     0.19100
H366        H  0.51435073  0.22009169  0.96488569     0.17900
H367        H  0.51966716  0.26165611  0.90010611     0.14200
H368        H  0.49717004  0.25342979  0.14317225     0.14100
H369        H  0.49844065  0.32264352  0.99487623     0.32200
H370        H  0.51841058  0.19339208  0.04651422     0.35000
C371        C  0.71713279  0.09897379  0.25138307     0.20600
C372        C  0.69415631  0.09080117  0.22952695    -0.39300
C373        C  0.67358705  0.10858906  0.23123704     0.19600
C374        C  0.67593520  0.13289944  0.25208003     0.22200
C375        C  0.69877039  0.14092086  0.27445392    -0.39800
C376        C  0.71913498  0.12292445  0.27363684     0.21000
N377        N  0.73890862  0.08506674  0.25720685    -0.33100
C378        C  0.75457411  0.10006655  0.28426128    -0.10600
C379        C  0.74297838  0.12384464  0.29504280    -0.29400
N380        N  0.65369113  0.14627853  0.24863656    -0.46000
C381        C  0.63696490  0.13012145  0.22637880    -0.05300
C382        C  0.64854867  0.10642292  0.21506104    -0.22700
H383        H  0.69224680  0.07178317  0.21337215     0.19100
H384        H  0.70036982  0.15956243  0.29208869     0.17900
H385        H  0.75058087  0.13927458  0.31709504     0.14200
H386        H  0.63991316  0.09005388  0.19679554     0.14100
H387        H  0.74231213  0.06601468  0.24581338     0.32200
H388        H  0.64997333  0.16505100  0.26115024     0.35000
C389        C  0.61289595  0.20581009  0.72267610     0.20600
C390        C  0.62087811  0.22896208  0.74489077    -0.39300
C391        C  0.60106941  0.24673653  0.75601348     0.19600
C392        C  0.57531695  0.24189799  0.74545060     0.22200
C393        C  0.56732064  0.21876924  0.72345502    -0.39800
C394        C  0.58706751  0.20094913  0.71271810     0.21000
N395        N  0.62758262  0.18489140  0.71218373    -0.33100
C396        C  0.61087013  0.16644669  0.69634058    -0.10600
C397        C  0.58550036  0.17590111  0.69569300    -0.29400
N398        N  0.56013738  0.26135550  0.76104603    -0.46000
C399        C  0.57625953  0.27870987  0.78201484    -0.05300
C400        C  0.60197362  0.27026524  0.77958142    -0.22700
H401        H  0.64091955  0.23252404  0.75413955     0.19100
H402        H  0.54709972  0.21458940  0.71657654     0.17900
H403        H  0.56803300  0.16529769  0.68670124     0.14200
H404        H  0.61895567  0.27983730  0.79381667     0.14100
H405        H  0.64740455  0.18270117  0.71840721     0.32200
H406        H  0.53996290  0.26247400  0.75850325     0.35000
C407        C  0.72822400  0.01942690  0.55980686     0.20600
C408        C  0.75498243  0.01969289  0.55032295    -0.39300
C409        C  0.76207725  0.02065015  0.50279392     0.19600
C410        C  0.74387361  0.02049592  0.46716535     0.22200
C411        C  0.71712787  0.02048474  0.47666260    -0.39800
C412        C  0.71003081  0.02034383  0.52421860     0.21000
N413        N  0.71690556  0.02391323  0.60162647    -0.33100
C414        C  0.69154920  0.02872015  0.59267211    -0.10600
C415        C  0.68649806  0.02634884  0.54477060    -0.29400
N416        N  0.75516718  0.02588106  0.42579136    -0.46000
C417        C  0.78052037  0.03049426  0.43517030    -0.05300
C418        C  0.78561273  0.02710441  0.48279177    -0.22700
H419        H  0.76918100  0.02159648  0.57804869     0.19100
H420        H  0.70293269  0.02298243  0.44914857     0.17900
H421        H  0.66880126  0.03161621  0.52684725     0.14200
H422        H  0.80336317  0.03190331  0.50112945     0.14100
H423        H  0.72646397  0.02711832  0.63340432     0.32200
H424        H  0.74561679  0.02968716  0.39431748     0.35000
C425        C  0.60905452  0.08512512  0.92469239     0.20600
C426        C  0.60150549  0.07690934  0.96965455    -0.39300
C427        C  0.59215101  0.09656954  0.99971778     0.19600
C428        C  0.59076625  0.12231271  0.98595249     0.22200
C429        C  0.59832190  0.13048093  0.94142965    -0.39800
C430        C  0.60732154  0.11093909  0.91144645     0.21000
N431        N  0.61624430  0.07016769  0.88797371    -0.33100
C432        C  0.61844335  0.08671515  0.85132490    -0.10600
C433        C  0.61336451  0.11224380  0.86482554    -0.29400
N434        N  0.58161652  0.13737905  0.02056547    -0.46000
C435        C  0.57710471  0.12128560  0.05697261    -0.05300
C436        C  0.58326464  0.09556320  0.04538854    -0.22700
H437        H  0.60229083  0.05671541  0.98004718     0.19100
H438        H  0.59667166  0.15053897  0.93051018     0.17900
H439        H  0.61238079  0.12921596  0.84261437     0.14200
H440        H  0.58246720  0.07871549  0.06790918     0.14100
H441        H  0.61750236  0.04989291  0.88698231     0.32200
H442        H  0.57930627  0.15755982  0.01986826     0.35000
C443        C  0.55380414  0.10313462  0.41462201     0.20600
C444        C  0.56217483  0.08250021  0.44270322    -0.39300
C445        C  0.56814063  0.08907447  0.48916169     0.19600
C446        C  0.56602189  0.11434500  0.50594248     0.22200
C447        C  0.55760798  0.13492050  0.47793540    -0.39800
C448        C  0.55151233  0.12831584  0.43166686     0.21000
N449        N  0.54889662  0.10234598  0.36855442    -0.33100
C450        C  0.54348405  0.12716916  0.35626930    -0.10600
C451        C  0.54471032  0.14394333  0.39472055    -0.29400
N452        N  0.57527709  0.11613619  0.54958035    -0.46000
C453        C  0.58329132  0.09194067  0.56074529    -0.05300
C454        C  0.57908482  0.07435549  0.52422839    -0.22700
H455        H  0.56477939  0.06300857  0.42891160     0.19100
H456        H  0.55681328  0.15476885  0.49077190     0.17900
H457        H  0.54242141  0.16487339  0.39504919     0.14200
H458        H  0.58504156  0.05419569  0.52228359     0.14100
H459        H  0.55018206  0.08609116  0.34648876     0.32200
H460        H  0.57742325  0.13306948  0.56967973     0.35000
C461        C  0.88859053  0.09748934  0.03499980     0.20600
C462        C  0.87776737  0.07761761  0.06242353    -0.39300
C463        C  0.87264976  0.08427848  0.10936242     0.19600
C464        C  0.87816571  0.10876455  0.12732713     0.22200
C465        C  0.88867545  0.12860133  0.09999299    -0.39800
C466        C  0.89357052  0.12201347  0.05328926     0.21000
N467        N  0.89404009  0.09672025  0.98887438    -0.33100
C468        C  0.90204825  0.12108472  0.97805571    -0.10600
C469        C  0.90218835  0.13727382  0.01735591    -0.29400
N470        N  0.87261474  0.11005377  0.17305265    -0.46000
C471        C  0.86336619  0.08629976  0.18454395    -0.05300
C472        C  0.86280671  0.06964867  0.14574229    -0.22700
H473        H  0.87351706  0.05850644  0.04824402     0.19100
H474        H  0.89260903  0.14782334  0.11402662     0.17900
H475        H  0.90668612  0.15784442  0.01886391     0.14200
H476        H  0.85720905  0.04935529  0.14483014     0.14100
H477        H  0.89094482  0.08118142  0.96575676     0.32200
H478        H  0.87551542  0.12598927  0.19540532     0.35000
C479        C  0.92137859  0.13430963  0.60494566     0.20600
C480        C  0.90969978  0.14269142  0.56362842    -0.39300
C481        C  0.90351563  0.12309856  0.53144300     0.19600
C482        C  0.90917573  0.09709366  0.53888651     0.22200
C483        C  0.92082175  0.08865373  0.58043747    -0.39800
C484        C  0.92637186  0.10825486  0.61335876     0.21000
N485        N  0.92568885  0.14875826  0.64338650    -0.33100
C486        C  0.93267033  0.13171533  0.67689408    -0.10600
C487        C  0.93371799  0.10632318  0.65948298    -0.29400
N488        N  0.89948170  0.08218766  0.50417446    -0.46000
C489        C  0.88705184  0.09897870  0.47567306    -0.05300
C490        C  0.88926684  0.12454165  0.49121556    -0.22700
H491        H  0.90432210  0.16279914  0.55823188     0.19100
H492        H  0.92383371  0.06825001  0.58778501     0.17900
H493        H  0.93736909  0.08867882  0.67889568     0.14200
H494        H  0.88078940  0.14175168  0.47584863     0.14100
H495        H  0.92183360  0.16857756  0.64770877     0.32200
H496        H  0.89998664  0.06192410  0.50143204     0.35000
C497        C  0.75493543  0.11915659  0.75589943     0.20600
C498        C  0.77302931  0.13936404  0.76102715    -0.39300
C499        C  0.79750263  0.13197841  0.77761257     0.19600
C500        C  0.80368351  0.10634857  0.78722484     0.22200
C501        C  0.78547221  0.08621789  0.78282933    -0.39800
C502        C  0.76082976  0.09369699  0.76732290     0.21000
N503        N  0.73056053  0.12091187  0.73962489    -0.33100
C504        C  0.72081157  0.09645876  0.74160882    -0.10600
C505        C  0.73900930  0.07900374  0.75897670    -0.29400
N506        N  0.82832624  0.10439355  0.80193154    -0.46000
C507        C  0.83764053  0.12903781  0.80276811    -0.05300
C508        C  0.81903756  0.14678549  0.78786551    -0.22700
H509        H  0.76838531  0.15934996  0.75283803     0.19100
H510        H  0.79012189  0.06622627  0.79097653     0.17900
H511        H  0.73688264  0.05818502  0.76298407     0.14200
H512        H  0.82103293  0.16767908  0.78502658     0.14100
H513        H  0.72122775  0.13758309  0.72753042     0.32200
H514        H  0.83796986  0.08749112  0.81210931     0.35000
C515        C  0.87710504  0.25113985  0.29938429     0.20600
C516        C  0.85560332  0.23474585  0.30614472    -0.39300
C517        C  0.86127978  0.20943830  0.32113434     0.19600
C518        C  0.88648796  0.20124387  0.32854434     0.22200
C519        C  0.90792434  0.21765671  0.32216850    -0.39800
C520        C  0.90225093  0.24292444  0.30742113     0.21000
N521        N  0.87707076  0.27516464  0.28124658    -0.33100
C522        C  0.90234085  0.28224976  0.27762917    -0.10600
C523        C  0.91863761  0.26276487  0.29416797    -0.29400
N524        N  0.88700068  0.17593301  0.33930785    -0.46000
C525        C  0.86199864  0.16776102  0.33882545    -0.05300
C526        C  0.84526278  0.18818181  0.32801140    -0.22700
H527        H  0.83600428  0.24095506  0.29867446     0.19100
H528        H  0.92763603  0.21094484  0.32677301     0.17900
H529        H  0.93961978  0.26240786  0.29337987     0.14200
H530        H  0.82443135  0.18732422  0.32374039     0.14100
H531        H  0.86090291  0.28556890  0.26979937     0.32200
H532        H  0.90351113  0.16469862  0.34537443     0.35000
C533        C  0.97088415  0.28415119  0.03895595     0.20600
C534        C  0.97010990  0.28145437  0.98993793    -0.39300
C535        C  0.96981704  0.25585795  0.97251645     0.19600
C536        C  0.96998274  0.23447620  0.00175031     0.22200
C537        C  0.97066444  0.23716831  0.05085878    -0.39800
C538        C  0.97121741  0.26281756  0.06829943     0.21000
N539        N  0.96755539  0.30621355  0.06382470    -0.33100
C540        C  0.96573019  0.29906527  0.10936471    -0.10600
C541        C  0.96801535  0.27210974  0.11354388    -0.29400
N542        N  0.96580810  0.21248951  0.97695291    -0.46000
C543        C  0.96310001  0.21987626  0.93165158    -0.05300
C544        C  0.96551184  0.24678001  0.92756094    -0.22700
H545        H  0.96830464  0.29808831  0.96710678     0.19100
H546        H  0.96926907  0.22055113  0.07384099     0.17900
H547        H  0.96467852  0.26066122  0.14470300     0.14200
H548        H  0.96180180  0.25834577  0.89671330     0.14100
H549        H  0.96407879  0.32471200  0.05028445     0.32200
H550        H  0.96266284  0.19391309  0.99047867     0.35000
C551        C  0.90900711  0.43007748  0.49403817     0.20600
C552        C  0.91599727  0.43855755  0.44915615    -0.39300
C553        C  0.92486960  0.41916468  0.41828884     0.19600
C554        C  0.92687061  0.39330708  0.43117298     0.22200
C555        C  0.91982435  0.38481115  0.47597412    -0.39800
C556        C  0.91072485  0.40414382  0.50665606     0.21000
N557        N  0.89757501  0.44417155  0.52816600    -0.33100
C558        C  0.89176064  0.42690538  0.56220146    -0.10600
C559        C  0.89966718  0.40185944  0.55021873    -0.29400
N560        N  0.93325966  0.37834680  0.39413566    -0.46000
C561        C  0.93485235  0.39475131  0.35728772    -0.05300
C562        C  0.93008347  0.42038946  0.37109694    -0.22700
H563        H  0.91347771  0.45853236  0.43831528     0.19100
H564        H  0.92012566  0.36445770  0.48545292     0.17900
H565        H  0.89636827  0.38414985  0.56970061     0.14200
H566        H  0.92877805  0.43735123  0.34893681     0.14100
H567        H  0.89251661  0.46382389  0.52711154     0.32200
H568        H  0.93457451  0.35806699  0.39331154     0.35000
C569        C  0.87483078  0.40897742  0.90880145     0.20600
C570        C  0.88629877  0.38937447  0.93530769    -0.39300
C571        C  0.88983924  0.39523529  0.98268308     0.19600
C572        C  0.88257572  0.41884322  0.00231116     0.22200
C573        C  0.87058453  0.43835895  0.97583755    -0.39800
C574        C  0.86700948  0.43248011  0.92817901     0.21000
N575        N  0.87103889  0.40866659  0.86250157    -0.33100
C576        C  0.86070199  0.43208120  0.85205889    -0.10600
C577        C  0.85754070  0.44747475  0.89209852    -0.29400
N578        N  0.88839335  0.41953160  0.04818876    -0.46000
C579        C  0.89909473  0.39606361  0.05753435    -0.05300
C580        C  0.90025969  0.38039715  0.01763171    -0.22700
H581        H  0.89241458  0.37105975  0.91996762     0.19100
H582        H  0.86491715  0.45685835  0.99099167     0.17900
H583        H  0.85065552  0.46733113  0.89411123     0.14200
H584        H  0.90725120  0.36059420  0.01487663     0.14100
H585        H  0.87593661  0.39368598  0.83917418     0.32200
H586        H  0.88440921  0.43454403  0.07197717     0.35000
C587        C  0.88368346  0.32105162  0.70980535     0.20600
C588        C  0.90473328  0.30444004  0.71753167    -0.39300
C589        C  0.89865983  0.28016551  0.73650714     0.19600
C590        C  0.87350134  0.27296868  0.74733501     0.22200
C591        C  0.85230261  0.28961992  0.73936108    -0.39800
C592        C  0.85839449  0.31398898  0.71999875     0.21000
N593        N  0.88480685  0.34571384  0.69512251    -0.33100
C594        C  0.86013730  0.35472185  0.69593857    -0.10600
C595        C  0.84294111  0.33538760  0.71075727    -0.29400
N596        N  0.87319657  0.24933574  0.76736712    -0.46000
C597        C  0.89833557  0.24149389  0.76903308    -0.05300
C598        C  0.91473130  0.26020735  0.74994185    -0.22700
H599        H  0.92451290  0.31027003  0.71035148     0.19100
H600        H  0.83265721  0.28426365  0.74862343     0.17900
H601        H  0.82228539  0.33721965  0.71664004     0.14200
H602        H  0.93567629  0.25966914  0.74769708     0.14100
H603        H  0.90157553  0.35614158  0.68678287     0.32200
H604        H  0.85697002  0.23940566  0.78003012     0.35000
C605        C  0.72270140  0.40655854  0.78573304     0.20600
C606        C  0.70768538  0.39759958  0.82362527    -0.39300
C607        C  0.68149523  0.39221889  0.81359868     0.19600
C608        C  0.67109964  0.39593531  0.76941164     0.22200
C609        C  0.68621081  0.40428874  0.73145013    -0.39800
C610        C  0.71237096  0.40924632  0.74128097     0.21000
N611        N  0.74780644  0.41391777  0.78619598    -0.33100
C612        C  0.75347306  0.42081262  0.74146009    -0.10600
C613        C  0.73191525  0.41801372  0.71249677    -0.29400
N614        N  0.64544246  0.39145489  0.76958295    -0.46000
C615        C  0.63934793  0.38448087  0.81398866    -0.05300
C616        C  0.66138126  0.38440467  0.84245471    -0.22700
H617        H  0.71565481  0.39544549  0.85846210     0.19100
H618        H  0.67807157  0.40717649  0.69691766     0.17900
H619        H  0.73059817  0.42241675  0.67551642     0.14200
H620        H  0.66229873  0.38046675  0.87964639     0.14100
H621        H  0.76028899  0.41405880  0.81482287     0.32200
H622        H  0.63271136  0.39343943  0.74132548     0.35000
C623        C  0.80480257  0.41430768  0.24540576     0.20600
C624        C  0.78736241  0.43498765  0.25191021    -0.39300
C625        C  0.76181041  0.42790516  0.26315173     0.19600
C626        C  0.75439451  0.40221130  0.26867526     0.22200
C627        C  0.77174578  0.38152678  0.26156953    -0.39800
C628        C  0.79713437  0.38858947  0.24925170     0.21000
N629        N  0.83010644  0.41586404  0.23435662    -0.33100
C630        C  0.83848247  0.39095771  0.23028639    -0.10600
C631        C  0.81845873  0.37338816  0.23916939    -0.29400
N632        N  0.72949736  0.40069687  0.28240094    -0.46000
C633        C  0.72083047  0.42556098  0.28469357    -0.05300
C634        C  0.74038362  0.44309142  0.27274643    -0.22700
H635        H  0.79326729  0.45510417  0.24859123     0.19100
H636        H  0.76592718  0.36142029  0.26549222     0.17900
H637        H  0.81942289  0.35235684  0.23845435     0.14200
H638        H  0.73945632  0.46412186  0.27370898     0.14100
H639        H  0.84088271  0.43279886  0.22886886     0.32200
H640        H  0.71918845  0.38384699  0.29080269     0.35000
C641        C  0.76372715  0.50032218  0.53517812     0.20600
C642        C  0.75846541  0.50098830  0.48688614    -0.39300
C643        C  0.73216528  0.50023973  0.47433182     0.19600
C644        C  0.71260595  0.49839183  0.50747651     0.22200
C645        C  0.71784135  0.49835307  0.55573934    -0.39800
C646        C  0.74409049  0.49964671  0.56832320     0.21000
N647        N  0.78677295  0.49554512  0.55533006    -0.33100
C648        C  0.78184181  0.49200143  0.60158361    -0.10600
C649        C  0.75549350  0.49499037  0.61111682    -0.29400
N650        N  0.68995552  0.49230944  0.48688986    -0.46000
C651        C  0.69498290  0.49056633  0.44033997    -0.05300
C652        C  0.72102094  0.49580745  0.43107136    -0.22700
H653        H  0.77376460  0.49993335  0.46090861     0.19100
H654        H  0.70271477  0.49532193  0.58149960     0.17900
H655        H  0.74558621  0.49026190  0.64346798     0.14200
H656        H  0.73110474  0.49296047  0.39810657     0.14100
H657        H  0.80429741  0.49205276  0.53796138     0.32200
H658        H  0.67276232  0.48705848  0.50380833     0.35000
C659        C  0.59729220  0.27183945  0.29363103     0.20600
C660        C  0.61841314  0.28897038  0.29833127    -0.39300
C661        C  0.61246722  0.31400774  0.31506320     0.19600
C662        C  0.58735579  0.32137170  0.32596096     0.22200
C663        C  0.56629295  0.30417627  0.32172624    -0.39800
C664        C  0.57224912  0.27911729  0.30523899     0.21000
N665        N  0.59750845  0.24783527  0.27472834    -0.33100
C666        C  0.57244291  0.23975023  0.27411093    -0.10600
C667        C  0.55613788  0.25862422  0.29348132    -0.29400
N668        N  0.58653737  0.34658334  0.33844490    -0.46000
C669        C  0.61129427  0.35540957  0.33577739    -0.05300
C670        C  0.62810107  0.33559128  0.32155992    -0.22700
H671        H  0.63791194  0.28345316  0.28834073     0.19100
H672        H  0.54659801  0.31013188  0.32932389     0.17900
H673        H  0.53518721  0.25815252  0.29560229     0.14200
H674        H  0.64877017  0.33699677  0.31543366     0.14100
H675        H  0.61359231  0.23805996  0.26096219     0.32200
H676        H  0.57003845  0.35724938  0.34763605     0.35000
C677        C  0.59983454  0.44101871  0.11822643     0.20600
C678        C  0.59965367  0.44730617  0.07028572    -0.39300
C679        C  0.58675334  0.42942587  0.04085368     0.19600
C680        C  0.57512366  0.40714800  0.05819218     0.22200
C681        C  0.57501378  0.40111720  0.10573466    -0.39800
C682        C  0.58773067  0.41883818  0.13479272     0.21000
N683        N  0.61135705  0.45406540  0.15367335    -0.33100
C684        C  0.60613702  0.43991908  0.19257617    -0.10600
C685        C  0.59148406  0.41795209  0.18204024    -0.29400
N686        N  0.56629185  0.39203485  0.02344287    -0.46000
C687        C  0.57227008  0.40455246  0.98335921    -0.05300
C688        C  0.58471579  0.42820612  0.99256504    -0.22700
H689        H  0.60939192  0.46435986  0.05680347     0.19100
H690        H  0.56625724  0.38348066  0.11901107     0.17900
H691        H  0.58456726  0.40318286  0.20591988     0.14200
H692        H  0.59286573  0.44160669  0.96739423     0.14100
H693        H  0.62175311  0.47148038  0.15167395     0.32200
H694        H  0.55781400  0.37366468  0.02674422     0.35000
C695        C  0.58178553  0.39762435  0.54505228     0.20600
C696        C  0.57849170  0.37687918  0.57593983    -0.39300
C697        C  0.56290641  0.38204327  0.61493456     0.19600
C698        C  0.55188841  0.40623457  0.62296280     0.22200
C699        C  0.55478787  0.42690081  0.59148875    -0.39800
C700        C  0.57001935  0.42155829  0.55189644     0.21000
N701        N  0.59645045  0.39778662  0.50643227    -0.33100
C702        C  0.59369318  0.42177706  0.48796442    -0.10600
C703        C  0.57718762  0.43723959  0.51497237    -0.29400
N704        N  0.54089084  0.40712998  0.66551780    -0.46000
C705        C  0.54483041  0.38332833  0.68429450    -0.05300
C706        C  0.55807760  0.36697528  0.65356984    -0.22700
H707        H  0.58802098  0.35833247  0.57070189     0.19100
H708        H  0.54644858  0.44589468  0.59803606     0.17900
H709        H  0.57156542  0.45720127  0.50881099     0.14200
H710        H  0.56559164  0.34773930  0.66060556     0.14100
H711        H  0.60736496  0.38234419  0.49293853     0.32200
H712        H  0.53278961  0.42340502  0.68203280     0.35000
C713        C  0.03562190  0.09010453  0.77894841     0.20600
C714        C  0.06212992  0.08561029  0.76967982    -0.39300
C715        C  0.06805662  0.06213517  0.74609185     0.19600
C716        C  0.04889121  0.04504811  0.73154222     0.22200
C717        C  0.02258180  0.04936963  0.74124095    -0.39800
C718        C  0.01681502  0.07222157  0.76614449     0.21000
N719        N  0.02475945  0.11061719  0.80139758    -0.33100
C720        C  0.99902632  0.10513470  0.80421201    -0.10600
C721        C  0.99343896  0.08141167  0.78248379    -0.29400
N722        N  0.05929686  0.02342802  0.71284792    -0.46000
C723        C  0.08537369  0.02604992  0.71665205    -0.05300
C724        C  0.09164672  0.05015275  0.73687322    -0.22700
H725        H  0.07707117  0.09893612  0.78138532     0.19100
H726        H  0.00773647  0.03543771  0.73156587     0.17900
H727        H  0.97453902  0.07264587  0.77743661     0.14200
H728        H  0.11069933  0.05708508  0.74677912     0.14100
H729        H  0.03416438  0.12730897  0.81372247     0.32200
H730        H  0.04915378  0.00685333  0.70199447     0.35000
C731        C  0.42750371  0.03359272  0.25978241     0.20600
C732        C  0.44965199  0.03859474  0.23285723    -0.39300
C733        C  0.45482370  0.06480421  0.22384247     0.19600
C734        C  0.43940029  0.08472252  0.24096955     0.22200
C735        C  0.41670465  0.07961920  0.26709292    -0.39800
C736        C  0.41125613  0.05317218  0.27558612     0.21000
N737        N  0.41895546  0.01026741  0.27365018    -0.33100
C738        C  0.39668848  0.01457669  0.29776696    -0.10600
C739        C  0.39109934  0.04121361  0.29964969    -0.29400
N740        N  0.45078627  0.10797099  0.23325290    -0.46000
C741        C  0.47354203  0.10264860  0.21103961    -0.05300
C742        C  0.47630541  0.07593657  0.20374323    -0.22700
H743        H  0.46243015  0.02318860  0.22104045     0.19100
H744        H  0.40464916  0.09507855  0.28096911     0.17900
H745        H  0.37446414  0.05048553  0.31574841     0.14200
H746        H  0.49322960  0.06580139  0.19054128     0.14100
H747        H  0.42732498  0.99228345  0.26555979     0.32200
H748        H  0.44454982  0.12603837  0.24582379     0.35000
C749        C  0.25158546  0.99578227  0.47556028     0.20600
C750        C  0.22506240  0.99777103  0.48644848    -0.39300
C751        C  0.21868939  0.99717555  0.53433810     0.19600
C752        C  0.23739160  0.99492505  0.56883021     0.22200
C753        C  0.26384685  0.99255613  0.55794143    -0.39800
C754        C  0.27017838  0.99294509  0.51008894     0.21000
N755        N  0.26203897  0.99179514  0.43285105    -0.33100
C756        C  0.28727146  0.98569803  0.44018163    -0.10600
C757        C  0.29307394  0.98642358  0.48795192    -0.29400
N758        N  0.22627947  0.99088898  0.61080317    -0.46000
C759        C  0.20036291  0.99020958  0.60315978    -0.05300
C760        C  0.19486289  0.99415492  0.55587044    -0.22700
H761        H  0.21033070  0.99790843  0.45946560     0.19100
H762        H  0.27823583  0.98874625  0.58461145     0.17900
H763        H  0.31081379  0.98004281  0.50451226     0.14200
H764        H  0.17625629  0.99198392  0.53877169     0.14100
H765        H  0.25194794  0.99012508  0.40125869     0.32200
H766        H  0.23579779  0.98596283  0.64180739     0.35000
C767        C  0.93600226  0.58854234  0.79819817     0.20600
C768        C  0.91264692  0.58365972  0.77373065    -0.39300
C769        C  0.90572205  0.55723611  0.76794760     0.19600
C770        C  0.92116256  0.53748478  0.78502638     0.22200
C771        C  0.94397846  0.54232258  0.81025035    -0.39800
C772        C  0.95072411  0.56850860  0.81626515     0.21000
N773        N  0.94868979  0.61141509  0.80307909    -0.33100
C774        C  0.97160633  0.60576613  0.82429295    -0.10600
C775        C  0.97320230  0.57922479  0.83376912    -0.29400
N776        N  0.91176584  0.51415742  0.77248163    -0.46000
C777        C  0.88985953  0.51857227  0.74756841    -0.05300
C778        C  0.88519734  0.54536468  0.74429236    -0.22700
H779        H  0.90130981  0.59919154  0.75865260     0.19100
H780        H  0.95623391  0.52671778  0.82255382     0.17900
H781        H  0.98978586  0.56875365  0.84716117     0.14200
H782        H  0.86934767  0.55482609  0.72640726     0.14100
H783        H  0.94302390  0.62935414  0.78955387     0.32200
H784        H  0.91977655  0.49611590  0.78081040     0.35000
C785        C  0.09392935  0.77692336  0.75145570     0.20600
C786        C  0.11504077  0.79327534  0.74145746    -0.39300
C787        C  0.10899250  0.81955214  0.73420232     0.19600
C788        C  0.08387896  0.82887465  0.73744172     0.22200
C789        C  0.06273099  0.81247293  0.74684872    -0.39800
C790        C  0.06873632  0.78613371  0.75343511     0.21000
N791        N  0.09469841  0.75152451  0.76225865    -0.33100
C792        C  0.06980560  0.74444904  0.77089935    -0.10600
C793        C  0.05301901  0.76546872  0.76530572    -0.29400
N794        N  0.08333466  0.85468069  0.73030884    -0.46000
C795        C  0.10821244  0.86179950  0.72169486    -0.05300
C796        C  0.12478882  0.84040763  0.72367110    -0.22700
H797        H  0.13475349  0.78611662  0.73994018     0.19100
H798        H  0.04308965  0.81974218  0.74944596     0.17900
H799        H  0.03234554  0.76593243  0.77186841     0.14200
H800        H  0.14556552  0.84018729  0.71827694     0.14100
H801        H  0.11124560  0.73993857  0.76520206     0.32200
H802        H  0.06697482  0.86664869  0.73035402     0.35000
C803        C  0.92529824  0.98566793  0.26628199     0.20600
C804        C  0.94933944  0.98221149  0.24468505    -0.39300
C805        C  0.95493914  0.95699035  0.22967199     0.19600
C806        C  0.93823180  0.93629595  0.23644690     0.22200
C807        C  0.91349578  0.93995496  0.25712410    -0.39800
C808        C  0.90757030  0.96568513  0.27150240     0.21000
N809        N  0.91600148  0.00802253  0.28337126    -0.33100
C810        C  0.89168112  0.00303979  0.29878721    -0.10600
C811        C  0.88555393  0.97665330  0.29206147    -0.29400
N812        N  0.95019066  0.91369094  0.22495186    -0.46000
C813        C  0.97451626  0.92043835  0.21072035    -0.05300
C814        C  0.97770780  0.94733528  0.21228655    -0.22700
H815        H  0.96306380  0.99801837  0.24091296     0.19100
H816        H  0.90019806  0.92396132  0.26263404     0.17900
H817        H  0.86737835  0.96704420  0.29979119     0.14200
H818        H  0.99540702  0.95822803  0.20657256     0.14100
H819        H  0.92537430  0.02604874  0.28241018     0.32200
H820        H  0.94303621  0.89490666  0.23005489     0.35000
C821        C  0.17485606  0.91235407  0.23125093     0.20600
C822        C  0.19357089  0.93214505  0.23436500    -0.39300
C823        C  0.21744702  0.92487451  0.25376303     0.19600
C824        C  0.22206323  0.89996143  0.26987770     0.22200
C825        C  0.20341717  0.88012860  0.26645213    -0.39800
C826        C  0.17975358  0.88724985  0.24608750     0.21000
N827        N  0.15072560  0.91424199  0.21395282    -0.33100
C828        C  0.14031702  0.89008363  0.21712614    -0.10600
C829        C  0.15784607  0.87269242  0.23694010    -0.29400
N830        N  0.24591070  0.89825913  0.28846116    -0.46000
C831        C  0.25672885  0.92212267  0.28343692    -0.05300
C832        C  0.23962037  0.93924651  0.26177040    -0.22700
H833        H  0.18984654  0.95172458  0.22240906     0.19100
H834        H  0.20709097  0.86058373  0.27863597     0.17900
H835        H  0.15483438  0.85226672  0.24418010     0.14200
H836        H  0.24266187  0.95966324  0.25449473     0.14100
H837        H  0.14194772  0.93088406  0.20043985     0.32200
H838        H  0.25426054  0.88193904  0.30395999     0.35000
C839        C  0.00462081  0.79036977  0.02902735     0.20600
C840        C  0.00748801  0.78636112  0.98067156    -0.39300
C841        C  0.00472991  0.76068271  0.96488220     0.19600
C842        C  0.99966205  0.74027595  0.99497263     0.22200
C843        C  0.99676448  0.74430144  0.04366067    -0.39800
C844        C  0.99933301  0.77020716  0.05953652     0.21000
N845        N  0.01048469  0.81220179  0.05273776    -0.33100
C846        C  0.00908840  0.80624746  0.09883271    -0.10600
C847        C  0.00181008  0.78022362  0.10459977    -0.29400
N848        N  0.00200012  0.71734574  0.97207957    -0.46000
C849        C  0.00864313  0.72334258  0.92734548    -0.05300
C850        C  0.01039342  0.75014856  0.92162873    -0.22700
H851        H  0.01322870  0.80189521  0.95739210     0.19100
H852        H  0.99441381  0.72826421  0.06770290     0.17900
H853        H  0.00181571  0.76929559  0.13691292     0.14200
H854        H  0.01766576  0.76039103  0.89125655     0.14100
H855        H  0.01766337  0.82942544  0.03842554     0.32200
H856        H  0.00163994  0.69883289  0.98693894     0.35000
C857        C  0.07825775  0.91301093  0.40464677     0.20600
C858        C  0.09877855  0.92327458  0.43076771    -0.39300
C859        C  0.09469733  0.92465484  0.47904221     0.19600
C860        C  0.07174648  0.91682022  0.49992961     0.22200
C861        C  0.05119328  0.90616782  0.47364782    -0.39800
C862        C  0.05545645  0.90436831  0.42502997     0.21000
N863        N  0.07787290  0.90922072  0.35831246    -0.33100
C864        C  0.05489063  0.89768252  0.34865074    -0.10600
C865        C  0.04023692  0.89418955  0.38936330    -0.29400
N866        N  0.07329948  0.91943607  0.54679555    -0.46000
C867        C  0.09758101  0.92847462  0.55530495    -0.05300
C868        C  0.11141594  0.93202856  0.51396451    -0.22700
H869        H  0.11684127  0.92926071  0.41469900     0.19100
H870        H  0.03349985  0.89931879  0.48989659     0.17900
H871        H  0.02116968  0.88554597  0.39238953     0.14200
H872        H  0.13134239  0.93833421  0.51013026     0.14100
H873        H  0.09268387  0.91374702  0.33466129     0.32200
H874        H  0.05928590  0.91417691  0.57148103     0.35000
C875        C  0.11606976  0.93316707  0.92031384     0.20600
C876        C  0.12082310  0.91482298  0.95517131    -0.39300
C877        C  0.10215619  0.91351755  0.99061835     0.19600
C878        C  0.08063483  0.92960007  0.99208833     0.22200
C879        C  0.07564010  0.94770904  0.95672505    -0.39800
C880        C  0.09406715  0.94862642  0.92055347     0.21000
N881        N  0.12978738  0.93659628  0.88091073    -0.33100
C882        C  0.11604262  0.95376048  0.85530807    -0.10600
C883        C  0.09370703  0.96181812  0.87877293    -0.29400
N884        N  0.06608434  0.92463739  0.03015931    -0.46000
C885        C  0.07837486  0.90496482  0.05225361    -0.05300
C886        C  0.10080292  0.89747027  0.02857586    -0.22700
H887        H  0.13749446  0.90205446  0.95414453     0.19100
H888        H  0.05837634  0.95965730  0.95669666     0.17900
H889        H  0.07849972  0.97430981  0.86571593     0.14200
H890        H  0.11466074  0.88272247  0.03860834     0.14100
H891        H  0.14625756  0.92627790  0.87032785     0.32200
H892        H  0.04900882  0.93398527  0.04045361     0.35000
C893        C  0.03683652  0.43396781  0.24230352     0.20600
C894        C  0.05927465  0.43896744  0.26935433    -0.39300
C895        C  0.06561803  0.46543782  0.27634458     0.19600
C896        C  0.05029365  0.48506322  0.25847330     0.22200
C897        C  0.02838147  0.48011985  0.23093999    -0.39800
C898        C  0.02241365  0.45392224  0.22323773     0.21000
N899        N  0.02489006  0.41093398  0.23477496    -0.33100
C900        C  0.00278412  0.41642582  0.21076723    -0.10600
C901        C  0.00100077  0.44303229  0.20222766    -0.29400
N902        N  0.05947630  0.50844500  0.27086601    -0.46000
C903        C  0.08128156  0.50421466  0.29609417    -0.05300
C904        C  0.08593953  0.47747208  0.30025990    -0.22700
H905        H  0.07056976  0.42346906  0.28464730     0.19100
H906        H  0.01641660  0.49564241  0.21743866     0.17900
H907        H  0.98472781  0.45337999  0.18737378     0.14200
H908        H  0.10198411  0.46817244  0.31785676     0.14100
H909        H  0.03032011  0.39295683  0.24847725     0.32200
H910        H  0.05175689  0.52640632  0.26119057     0.35000
C911        C  0.07248215  0.62507953  0.53045010     0.20600
C912        C  0.06879050  0.64537076  0.56266436    -0.39300
C913        C  0.05544222  0.63876649  0.60351954     0.19600
C914        C  0.04681310  0.61370722  0.61201728     0.22200
C915        C  0.05005022  0.59345317  0.57920758    -0.39800
C916        C  0.06310984  0.60017537  0.53781941     0.21000
N917        N  0.08626896  0.62608378  0.49079909    -0.33100
C918        C  0.08551310  0.60180836  0.47228132    -0.10600
C919        C  0.07095990  0.58502580  0.50014443    -0.29400
N920        N  0.03763878  0.61181988  0.65593228    -0.46000
C921        C  0.04026513  0.63588827  0.67503936    -0.05300
C922        C  0.05094001  0.65330957  0.64327055    -0.22700
H923        H  0.07663711  0.66465017  0.55710574     0.19100
H924        H  0.04377641  0.57375281  0.58617344     0.17900
H925        H  0.06771572  0.56441656  0.49479941     0.14200
H926        H  0.05674821  0.67325145  0.64980818     0.14100
H927        H  0.09598886  0.64225705  0.47739367     0.32200
H928        H  0.03125066  0.59496516  0.67264964     0.35000
C929        C  0.10103437  0.58555440  0.10717918     0.20600
C930        C  0.09481290  0.57765155  0.06124201    -0.39300
C931        C  0.08600740  0.59747868  0.03148938     0.19600
C932        C  0.08363754  0.62303053  0.04662563     0.22200
C933        C  0.08961754  0.63082998  0.09224178    -0.39800
C934        C  0.09834633  0.61118110  0.12166263     0.21000
N935        N  0.10904888  0.57062897  0.14301550    -0.33100
C936        C  0.11099674  0.58710736  0.18019277    -0.10600
C937        C  0.10465043  0.61244582  0.16804685    -0.29400
N938        N  0.07612736  0.63846087  0.01168758    -0.46000
C939        C  0.07375382  0.62280970  0.97365898    -0.05300
C940        C  0.07947566  0.59699169  0.98455158    -0.22700
H941        H  0.09678471  0.55768475  0.04951704     0.19100
H942        H  0.08767503  0.65080943  0.10396466     0.17900
H943        H  0.10372177  0.62937187  0.19080178     0.14200
H944        H  0.08006735  0.58045602  0.96088803     0.14100
H945        H  0.11165991  0.55047902  0.14285903     0.32200
H946        H  0.07366245  0.65862674  0.01329154     0.35000
C947        C  0.08683493  0.70237680  0.31084011     0.20600
C948        C  0.06602950  0.71968277  0.30724348    -0.39300
C949        C  0.07229974  0.74450400  0.29114114     0.19600
C950        C  0.09730291  0.75131370  0.27834573     0.22200
C951        C  0.11819247  0.73396339  0.28193377    -0.39800
C952        C  0.11199603  0.70926058  0.29921527     0.21000
N953        N  0.08577792  0.67770142  0.32524921    -0.33100
C954        C  0.11043369  0.66877298  0.32333582    -0.10600
C955        C  0.12746280  0.68787478  0.30732890    -0.29400
N956        N  0.09779175  0.77553529  0.26131149    -0.46000
C957        C  0.07300590  0.78420466  0.26387644    -0.05300
C958        C  0.05654847  0.76550278  0.28258579    -0.22700
H959        H  0.04638605  0.71418526  0.31625449     0.19100
H960        H  0.13773294  0.73927036  0.27186827     0.17900
H961        H  0.14814592  0.68617998  0.30160056     0.14200
H962        H  0.03568713  0.76650385  0.28638659     0.14100
H963        H  0.06923021  0.66752733  0.33570906     0.32200
H964        H  0.11380064  0.78524952  0.24723697     0.35000
C965        C  0.41018298  0.46104732  0.75787691     0.20600
C966        C  0.41457255  0.43613817  0.77682081    -0.39300
C967        C  0.43941328  0.43191402  0.79606338     0.19600
C968        C  0.45798252  0.45134716  0.79763727     0.22200
C969        C  0.45377879  0.47591709  0.77798320    -0.39800
C970        C  0.42942291  0.47980274  0.75748145     0.21000
N971        N  0.38816713  0.47042681  0.73867854    -0.33100
C972        C  0.39380356  0.49508322  0.72493559    -0.10600
C973        C  0.41941942  0.50140486  0.73585899    -0.29400
N974        N  0.48034108  0.44236400  0.81532049    -0.46000
C975        C  0.47663324  0.41669613  0.82371121    -0.05300
C976        C  0.45117318  0.40946042  0.81241333    -0.22700
H977        H  0.39995672  0.42102336  0.77577336     0.19100
H978        H  0.46864332  0.49080227  0.77780915     0.17900
H979        H  0.42888636  0.52005407  0.73163284     0.14200
H980        H  0.44299882  0.39006381  0.81275498     0.14100
H981        H  0.37026532  0.46098942  0.73640548     0.32200
H982        H  0.49785565  0.45254525  0.81734104     0.35000
C983        C  0.22071998  0.61454216  0.77687798     0.20600
C984        C  0.20528612  0.63527433  0.79309874    -0.39300
C985        C  0.17845780  0.63049307  0.79467672     0.19600
C986        C  0.16785506  0.60696220  0.78062939     0.22200
C987        C  0.18329808  0.58612736  0.76509959    -0.39800
C988        C  0.21010994  0.59078385  0.76412416     0.21000
N989        N  0.24652062  0.61456918  0.76967786    -0.33100
C990        C  0.25239517  0.59053808  0.75286292    -0.10600
C991        C  0.23021814  0.57509117  0.74928492    -0.29400
N992        N  0.14189681  0.60737602  0.78486798    -0.46000
C993        C  0.13582242  0.63121048  0.80236300    -0.05300
C994        C  0.15816214  0.64620598  0.80896170    -0.22700
H995        H  0.21353021  0.65383602  0.80328874     0.19100
H996        H  0.17502060  0.56769870  0.75421385     0.17900
H997        H  0.22882334  0.55554438  0.73514898     0.14200
H998        H  0.15939832  0.66582060  0.82281026     0.14100
H999        H  0.25925518  0.63015258  0.77473233     0.32200
H1000       H  0.12912935  0.59211544  0.77739444     0.35000
C1001       C  0.22354208  0.52284396  0.47432274     0.20600
C1002       C  0.24968961  0.51836162  0.48581086    -0.39300
C1003       C  0.25593332  0.51966396  0.53379354     0.19600
C1004       C  0.23742769  0.52492786  0.56775257     0.22200
C1005       C  0.21138224  0.52953296  0.55630885    -0.39800
C1006       C  0.20521710  0.52838790  0.50846164     0.21000
N1007       N  0.21365279  0.52683530  0.43122859    -0.33100
C1008       C  0.18909350  0.53553438  0.43805247    -0.10600
C1009       C  0.18313055  0.53647123  0.48577723    -0.29400
N1010       N  0.24873240  0.52939620  0.60944591    -0.46000
C1011       C  0.27464223  0.52725025  0.60235318    -0.05300
C1012       C  0.27988358  0.52101755  0.55555286    -0.22700
H1013       H  0.26444035  0.51597786  0.45909167     0.19100
H1014       H  0.19734840  0.53557736  0.58245751     0.17900
H1015       H  0.16596445  0.54476153  0.50184325     0.14200
H1016       H  0.29866572  0.52084913  0.53856818     0.14100
H1017       H  0.22389486  0.52658513  0.39959226     0.32200
H1018       H  0.23959410  0.53641973  0.63972244     0.35000
C1019       C  0.51368616  0.56593140  0.25994821     0.20600
C1020       C  0.51795980  0.54335578  0.28582583    -0.39300
C1021       C  0.54356720  0.53884433  0.29933904     0.19600
C1022       C  0.56383154  0.55506643  0.28707394     0.22200
C1023       C  0.55944055  0.57816823  0.26158977    -0.39800
C1024       C  0.53339509  0.58313256  0.24897542     0.21000
N1025       N  0.49072176  0.57478054  0.24525173    -0.33100
C1026       C  0.49518867  0.59834231  0.22582196    -0.10600
C1027       C  0.52175359  0.60424467  0.22710267    -0.29400
N1028       N  0.58673778  0.54444440  0.29997846    -0.46000
C1029       C  0.58069312  0.52138763  0.32061824    -0.05300
C1030       C  0.55388749  0.51775896  0.32156580    -0.22700
H1031       H  0.50238524  0.53011698  0.29467325     0.19100
H1032       H  0.57506351  0.59121599  0.25221178     0.17900
H1033       H  0.53105478  0.62203056  0.21588241     0.14200
H1034       H  0.54341532  0.50058487  0.33263076     0.14100
H1035       H  0.47272999  0.56597929  0.25105691     0.32200
H1036       H  0.60524293  0.55140614  0.29195429     0.35000
C1037       C  0.37278642  0.59441713  0.99871801     0.20600
C1038       C  0.35248260  0.59191060  0.96650517    -0.39300
C1039       C  0.35862583  0.57882503  0.92486696     0.19600
C1040       C  0.38325674  0.56930415  0.91579221     0.22200
C1041       C  0.40346269  0.57132881  0.94854234    -0.39800
C1042       C  0.39722182  0.58416195  0.99057060     0.21000
N1043       N  0.37240250  0.60799763  0.03883391    -0.33100
C1044       C  0.39661559  0.60623169  0.05669395    -0.10600
C1045       C  0.41268707  0.59120853  0.02807987    -0.29400
N1046       N  0.38487227  0.56039672  0.87158031    -0.46000
C1047       C  0.36105499  0.56404138  0.85278155    -0.05300
C1048       C  0.34404416  0.57518400  0.88503298    -0.22700
H1049       H  0.33359531  0.60045906  0.97263343     0.19100
H1050       H  0.42284537  0.56438162  0.94106559     0.17900
H1051       H  0.43314269  0.58733206  0.03267567     0.14200
H1052       H  0.32434781  0.58157686  0.87896689     0.14100
H1053       H  0.35676034  0.61840752  0.05276954     0.32200
H1054       H  0.40139389  0.55326728  0.85462334     0.35000
C1055       C  0.37660644  0.60759935  0.48209396     0.20600
C1056       C  0.36923200  0.61731699  0.43859497    -0.39300
C1057       C  0.38951054  0.62342008  0.40826864     0.19600
C1058       C  0.41535142  0.62035667  0.42015772     0.22200
C1059       C  0.42279057  0.61058512  0.46410623    -0.39800
C1060       C  0.40230727  0.60428901  0.49467020     0.21000
N1061       N  0.36072499  0.60073569  0.51691861    -0.33100
C1062       C  0.37619545  0.59310513  0.55247992    -0.10600
C1063       C  0.40237251  0.59487310  0.53999175    -0.29400
N1064       N  0.43072542  0.62620524  0.38346878    -0.46000
C1065       C  0.41425807  0.63251835  0.34831907    -0.05300
C1066       C  0.38853759  0.63118174  0.36259995    -0.22700
H1067       H  0.34909350  0.61955648  0.42877548     0.19100
H1068       H  0.44291044  0.60782124  0.47354935     0.17900
H1069       H  0.41908064  0.59086224  0.56166973     0.14200
H1070       H  0.37137439  0.63406637  0.34144464     0.14100
H1071       H  0.34050810  0.60203549  0.51695590     0.32200
H1072       H  0.45086171  0.62434398  0.38146635     0.35000
C1073       C  0.25115561  0.62524228  0.26337387     0.20600
C1074       C  0.27079603  0.64421220  0.26490705    -0.39300
C1075       C  0.29286588  0.63890750  0.23758659     0.19600
C1076       C  0.29524974  0.61622768  0.21146601     0.22200
C1077       C  0.27551322  0.59747872  0.20944951    -0.39800
C1078       C  0.25334767  0.60295073  0.23616075     0.21000
N1079       N  0.22896496  0.62489353  0.28814869    -0.33100
C1080       C  0.21691633  0.60230266  0.27635310    -0.10600
C1081       C  0.23141389  0.58822905  0.24364086    -0.29400
N1082       N  0.31878931  0.61472479  0.19158956    -0.46000
C1083       C  0.33145304  0.63669542  0.20462572    -0.05300
C1084       C  0.31586846  0.65246015  0.23297391    -0.22700
H1085       H  0.26926599  0.66149766  0.28660879     0.19100
H1086       H  0.27754379  0.57962103  0.18946403     0.17900
H1087       H  0.22707354  0.56922822  0.22905554     0.14200
H1088       H  0.32117017  0.67058862  0.24995573     0.14100
H1089       H  0.22268911  0.63885800  0.31239648     0.32200
H1090       H  0.32605452  0.59938549  0.17128032     0.35000
C1091       C  0.40028284  0.77345173  0.29101786     0.20600
C1092       C  0.40594709  0.79481840  0.32007714    -0.39300
C1093       C  0.38729816  0.81466349  0.32069216     0.19600
C1094       C  0.36458725  0.81320821  0.29490547     0.22200
C1095       C  0.35912877  0.79206158  0.26537624    -0.39800
C1096       C  0.37788801  0.77240412  0.26432819     0.21000
N1097       N  0.41513802  0.75238168  0.28301860    -0.33100
C1098       C  0.40216493  0.73813552  0.25049179    -0.10600
C1099       C  0.37892267  0.75000825  0.23802145    -0.29400
N1100       N  0.35053290  0.83501651  0.30005661    -0.46000
C1101       C  0.36471106  0.85064351  0.32848766    -0.05300
C1102       C  0.38767978  0.83864400  0.34224252    -0.22700
H1103       H  0.42378886  0.79616992  0.33988013     0.19100
H1104       H  0.34181495  0.79122579  0.24401750     0.17900
H1105       H  0.36479707  0.74324318  0.21267671     0.14200
H1106       H  0.40302578  0.84681080  0.36362919     0.14100
H1107       H  0.43322161  0.74832370  0.29767654     0.32200
H1108       H  0.33317771  0.83958600  0.28317931     0.35000
C1109       C  0.52507475  0.94805166  0.80992778     0.20600
C1110       C  0.53043206  0.97470252  0.80805663    -0.39300
C1111       C  0.55166024  0.98186607  0.78042597     0.19600
C1112       C  0.56695236  0.96398501  0.75676385     0.22200
C1113       C  0.56136745  0.93711479  0.75814666    -0.39800
C1114       C  0.53970227  0.92988401  0.78554576     0.21000
N1115       N  0.50440209  0.93689342  0.83019681    -0.33100
C1116       C  0.50521469  0.91138299  0.81810674    -0.10600
C1117       C  0.52722374  0.90616435  0.79067876    -0.29400
N1118       N  0.58612116  0.97623278  0.73306681    -0.46000
C1119       C  0.58242814  0.00204040  0.74137860    -0.05300
C1120       C  0.56112579  0.00612200  0.77060657    -0.22700
H1121       H  0.51843454  0.98896040  0.82582279     0.19100
H1122       H  0.57258194  0.92299942  0.73844672     0.17900
H1123       H  0.53213015  0.88803025  0.77334967     0.14200
H1124       H  0.55379583  0.02451888  0.78369856     0.14100
H1125       H  0.48942692  0.94654034  0.84783616     0.32200
H1126       H  0.60058221  0.96767369  0.71246136     0.35000
C1127       C  0.38105796  0.74133640  0.75080362     0.20600
C1128       C  0.35987795  0.72475315  0.74267949    -0.39300
C1129       C  0.36604745  0.69865810  0.73344302     0.19600
C1130       C  0.39136300  0.68972594  0.73310581     0.22200
C1131       C  0.41255929  0.70636267  0.74065108    -0.39800
C1132       C  0.40640414  0.73252288  0.74922085     0.21000
N1133       N  0.38028928  0.76661216  0.76291994    -0.33100
C1134       C  0.40532418  0.77398433  0.76879999    -0.10600
C1135       C  0.42220159  0.75331401  0.76014448    -0.29400
N1136       N  0.39203231  0.66399505  0.72485280    -0.46000
C1137       C  0.36700411  0.65654572  0.71919404    -0.05300
C1138       C  0.35020788  0.67763368  0.72409364    -0.22700
H1139       H  0.34005249  0.73160306  0.74400386     0.19100
H1140       H  0.43235309  0.69938537  0.74050201     0.17900
H1141       H  0.44306776  0.75313157  0.76416770     0.14200
H1142       H  0.32927607  0.67753927  0.72142861     0.14100
H1143       H  0.36372482  0.77789746  0.76851697     0.32200
H1144       H  0.40852909  0.65228191  0.72239349     0.35000
C1145       C  0.47377832  0.75941776  0.96252774     0.20600
C1146       C  0.47333546  0.73290479  0.97397921    -0.39300
C1147       C  0.47391163  0.72713881  0.02198103     0.19600
C1148       C  0.47491185  0.74632731  0.05620885     0.22200
C1149       C  0.47501302  0.77290490  0.04474165    -0.39800
C1150       C  0.47445276  0.77868819  0.99663366     0.21000
N1151       N  0.46977680  0.76977625  0.91998555    -0.33100
C1152       C  0.46778118  0.79581433  0.92678454    -0.10600
C1153       C  0.47057756  0.80211431  0.97419896    -0.29400
N1154       N  0.47134327  0.73597199  0.09898871    -0.46000
C1155       C  0.46742430  0.71013619  0.09192623    -0.05300
C1156       C  0.46917814  0.70392965  0.04433282    -0.22700
H1157       H  0.47096713  0.71789683  0.94752211     0.19100
H1158       H  0.47393806  0.78797133  0.07136796     0.17900
H1159       H  0.46744379  0.82090919  0.99056967     0.14200
H1160       H  0.46436467  0.68551963  0.02785485     0.14100
H1161       H  0.46610614  0.75958121  0.88887973     0.32200
H1162       H  0.46843233  0.74626655  0.13028046     0.35000
C1163       C  0.30800867  0.91047799  0.78257969     0.20600
C1164       C  0.29231750  0.93110944  0.76765593    -0.39300
C1165       C  0.26575938  0.92560293  0.76375084     0.19600
C1166       C  0.25559808  0.90123663  0.77303975     0.22200
C1167       C  0.27128332  0.88063347  0.78852588    -0.39800
C1168       C  0.29785944  0.88628643  0.79323551     0.21000
N1169       N  0.33380130  0.91088244  0.78926432    -0.33100
C1170       C  0.34024603  0.88688838  0.80489257    -0.10600
C1171       C  0.31829230  0.87098351  0.80793053    -0.29400
N1172       N  0.22990147  0.90079235  0.76462305    -0.46000
C1173       C  0.22365547  0.92519556  0.75073266    -0.05300
C1174       C  0.24550242  0.94120647  0.74991728    -0.22700
H1175       H  0.30021934  0.95009110  0.75968183     0.19100
H1176       H  0.26339635  0.86161606  0.79626102     0.17900
H1177       H  0.31741281  0.85096986  0.81937336     0.14200
H1178       H  0.24655919  0.96129256  0.73890408     0.14100
H1179       H  0.34622043  0.92669538  0.78424917     0.32200
H1180       H  0.21743021  0.88485855  0.76770662     0.35000
C1181       C  0.42535336  0.88147937  0.60232890     0.20600
C1182       C  0.41379633  0.87297572  0.56054327    -0.39300
C1183       C  0.40699671  0.89259753  0.52904515     0.19600
C1184       C  0.41192770  0.91869611  0.53773868     0.22200
C1185       C  0.42336038  0.92720838  0.57963583    -0.39800
C1186       C  0.42959545  0.90763062  0.61167077     0.21000
N1187       N  0.43038175  0.86704227  0.64031902    -0.33100
C1188       C  0.43709852  0.88421892  0.67439115    -0.10600
C1189       C  0.43719976  0.90964577  0.65769012    -0.29400
N1190       N  0.40218874  0.93358508  0.50342340    -0.46000
C1191       C  0.39047156  0.91676633  0.47356099    -0.05300
C1192       C  0.39311237  0.89111298  0.48813944    -0.22700
H1193       H  0.40911101  0.85272541  0.55418346     0.19100
H1194       H  0.42589942  0.94764740  0.58777763     0.17900
H1195       H  0.44038115  0.92736568  0.67759168     0.14200
H1196       H  0.38531791  0.87379514  0.47153327     0.14100
H1197       H  0.42715592  0.84709314  0.64405098     0.32200
H1198       H  0.40237682  0.95386231  0.50157825     0.35000
C1199       C  0.38206810  0.90881631  0.12584085     0.20600
C1200       C  0.39333669  0.88905805  0.09879875    -0.39300
C1201       C  0.39788367  0.89517278  0.05188114     0.19600
C1202       C  0.39189184  0.91921064  0.03317891     0.22200
C1203       C  0.38040812  0.93902009  0.06036327    -0.39800
C1204       C  0.37562931  0.93282562  0.10751187     0.21000
N1205       N  0.37666857  0.90793569  0.17164335    -0.33100
C1206       C  0.36670488  0.93150835  0.18300219    -0.10600
C1207       C  0.36542006  0.94759076  0.14383488    -0.29400
N1208       N  0.39698620  0.91950134  0.98690171    -0.46000
C1209       C  0.40575389  0.89530084  0.97631377    -0.05300
C1210       C  0.40682354  0.87972421  0.01601627    -0.22700
H1211       H  0.39801161  0.87020237  0.11318424     0.19100
H1212       H  0.37539755  0.95774025  0.04582597     0.17900
H1213       H  0.35923115  0.96768114  0.14264750     0.14200
H1214       H  0.41204003  0.85935940  0.01784847     0.14100
H1215       H  0.38028304  0.89241829  0.19420673     0.32200
H1216       H  0.39313914  0.93456895  0.96354911     0.35000
loop_ 
_geom_bond_atom_site_label_1 
_geom_bond_atom_site_label_2 
_geom_bond_distance 
_geom_bond_site_symmetry_2 
_ccdc_geom_bond_type 
Fe1          O17   2.083       .  S
Fe1           O7   2.060       .  S
Fe1          O14   2.067       .  S
Fe1           O6   2.077       .  S
Fe1          O12   1.960       .  S
Fe2           O5   2.082       .  S
Fe2           O9   2.044       .  S
Fe2          O13   2.080       .  S
Fe2          O18   2.050       .  S
Fe2          O12   1.952       .  S
Fe3          O21   2.077       .  S
Fe3           O8   2.083       .  S
Fe3          O15   2.087       .  S
Fe3           O4   2.065       .  S
Fe3          O12   1.965       .  S
O4           C11   1.274       .  A
O5           C19   1.273       .  A
O6           C11   1.275       .  A
O7           C10   1.267       .  A
O8           C20   1.269       .  A
O9           C22   1.267       .  A
C10          O15   1.269       .  A
C10        C1116   1.480       .  S
C11        C1188   1.465       .  S
O13          C16   1.270       .  A
O14          C16   1.268       .  A
C16        C1170   1.480       .  S
O17          C22   1.273       .  A
O18          C20   1.263       .  A
C19          O21   1.275       .  A
C19        C1152   1.470       .  S
C20        C1134   1.469       .  S
C22        C1209   1.466       .  S
Fe23         O39   2.059       .  S
Fe23         O29   2.063       .  S
Fe23         O36   2.084       .  S
Fe23         O28   2.035       .  S
Fe23         O34   1.941       .  S
Fe24         O27   2.051       .  S
Fe24         O31   2.074       .  S
Fe24         O35   2.063       .  S
Fe24         O40   2.051       .  S
Fe24         O34   1.938       .  S
Fe25         O43   2.106       .  S
Fe25         O30   2.071       .  S
Fe25         O37   2.086       .  S
Fe25         O26   2.102       .  S
Fe25         O34   1.960       .  S
O26          C33   1.278       .  A
O27          C41   1.272       .  A
O28          C33   1.270       .  A
O29          C32   1.267       .  A
O30          C42   1.268       .  A
O31          C44   1.271       .  A
C32          O37   1.271       .  A
C32        C1026   1.482       .  S
C33        C1065   1.459       .  S
O35          C38   1.265       .  A
O36          C38   1.268       .  A
C38        C1083   1.468       .  S
O39          C44   1.269       .  A
O40          C42   1.265       .  A
C41          O43   1.280       .  A
C41        C1155   1.470       .  S
C42        C1098   1.467       .  S
C44        C1044   1.459       .  S
Fe45         O61   2.057       .  S
Fe45         O51   2.081       .  S
Fe45         O58   2.079       .  S
Fe45         O50   2.051       .  S
Fe45         O56   1.960       .  S
Fe46         O49   2.058       .  S
Fe46         O53   2.071       .  S
Fe46         O57   2.048       .  S
Fe46         O62   2.089       .  S
Fe46         O56   1.945       .  S
Fe47         O65   2.091       .  S
Fe47         O52   2.078       .  S
Fe47         O59   2.061       .  S
Fe47         O48   2.099       .  S
Fe47         O56   1.963       .  S
O48          C55   1.270       .  A
O49          C63   1.262       .  A
O50          C55   1.264       .  A
O51          C54   1.276       .  A
O52          C64   1.277       .  A
O53          C66   1.268       .  A
C54          O59   1.275       .  A
C54        C1047   1.461       .  S
C55         C972   1.481       .  S
O57          C60   1.270       .  A
O58          C60   1.273       .  A
C60        C1062   1.466       .  S
O61          C66   1.266       .  A
O62          C64   1.277       .  A
C63          O65   1.269       .  A
C63         C990   1.473       .  S
C64        C1011   1.471       .  S
C66        C1137   1.470       .  S
Fe67         O83   2.070       .  S
Fe67         O73   2.028       .  S
Fe67         O80   2.059       .  S
Fe67         O72   2.053       .  S
Fe67         O78   1.942       .  S
Fe68         O71   2.064       .  S
Fe68         O75   2.060       .  S
Fe68         O79   2.080       .  S
Fe68         O84   2.052       .  S
Fe68         O78   1.943       .  S
Fe69         O87   2.066       .  S
Fe69         O74   2.110       .  S
Fe69         O81   2.109       .  S
Fe69         O70   2.088       .  S
Fe69         O78   1.960       .  S
O70          C77   1.269       .  A
O71          C85   1.266       .  A
O72          C77   1.264       .  A
O73          C76   1.269       .  A
O74          C86   1.281       .  A
O75          C88   1.264       .  A
C76          O81   1.280       .  A
C76         C936   1.461       .  S
C77         C903   1.479       .  S
O79          C82   1.273       .  A
O80          C82   1.270       .  A
C82         C918   1.461       .  S
O83          C88   1.266       .  A
O84          C86   1.272       .  A
C85          O87   1.267       .  A
C85        C1080   1.472       .  S
C86        C1008   1.474       .  S
C88         C954   1.464       .  S
Fe89        O105   2.059       .  S
Fe89         O95   2.047       .  S
Fe89        O102   2.080       .  S
Fe89         O94   2.037       .  S
Fe89        O100   1.960       .  S
Fe90         O93   2.056       .  S
Fe90         O97   2.053       .  S
Fe90        O101   2.058       .  S
Fe90        O106   2.027       .  S
Fe90        O100   1.957       .  S
Fe91        O109   2.105       .  S
Fe91         O96   2.070       .  S
Fe91        O103   2.089   1_455  S
Fe91         O92   2.100       .  S
Fe91        O100   1.984       .  S
O92          C99   1.279       .  A
O93         C107   1.273       .  A
O94          C99   1.269       .  A
O95          C98   1.265   1_455  A
O96         C108   1.266       .  A
O97         C110   1.266       .  A
C98         O103   1.268       .  A
C98         C813   1.482       .  S
C99         C864   1.465       .  S
O101        C104   1.266       .  A
O102        C104   1.268       .  A
C104        C828   1.471       .  S
O105        C110   1.267       .  A
O106        C108   1.257       .  A
C107        O109   1.281       .  A
C107        C846   1.472       .  S
C108        C957   1.459       .  S
C110        C885   1.460       .  S
Fe111       O127   2.079       .  S
Fe111       O117   2.057       .  S
Fe111       O124   2.063       .  S
Fe111       O116   2.081       .  S
Fe111       O122   1.954       .  S
Fe112       O115   2.089       .  S
Fe112       O119   2.043       .  S
Fe112       O123   2.083       .  S
Fe112       O128   2.053       .  S
Fe112       O122   1.944       .  S
Fe113       O131   2.071       .  S
Fe113       O118   2.095       .  S
Fe113       O125   2.099   1_455  S
Fe113       O114   2.055       .  S
Fe113       O122   1.957       .  S
O114        C121   1.273       .  A
O115        C129   1.276       .  A
O116        C121   1.275       .  A
O117        C120   1.266   1_455  A
O118        C130   1.271       .  A
O119        C132   1.268       .  A
C120        O125   1.271       .  A
C120        C774   1.484       .  S
C121        C921   1.460       .  S
O123        C126   1.271       .  A
O124        C126   1.268       .  A
C126        C993   1.478       .  S
O127        C132   1.272       .  A
O128        C130   1.264       .  A
C129        O131   1.274       .  A
C129        C849   1.468       .  S
C130        C792   1.473       .  S
C132        C939   1.463       .  S
Fe133       O149   2.073       .  S
Fe133       O139   2.033       .  S
Fe133       O146   2.056       .  S
Fe133       O138   2.056       .  S
Fe133       O144   1.946       .  S
Fe134       O137   2.062       .  S
Fe134       O141   2.062       .  S
Fe134       O145   2.083       .  S
Fe134       O150   2.055       .  S
Fe134       O144   1.943       .  S
Fe135       O153   2.065       .  S
Fe135       O140   2.103       .  S
Fe135       O147   2.113       .  S
Fe135       O136   2.081       .  S
Fe135       O144   1.958       .  S
O136        C143   1.267       .  A
O137        C151   1.265       .  A
O138        C143   1.263       .  A
O139        C142   1.271       .  A
O140        C152   1.282       .  A
O141        C154   1.265       .  A
C142        O147   1.284       .  A
C142       C1206   1.466       .  S
C143        C738   1.478   1_565  S
O145        C148   1.273       .  A
O146        C148   1.270       .  A
C148       C1191   1.459       .  S
O149        C154   1.265       .  A
O150        C152   1.274       .  A
C151        O153   1.266       .  A
C151        C831   1.470       .  S
C152        C756   1.470       .  S
C154       C1101   1.462       .  S
Fe155       O171   2.058       .  S
Fe155       O161   2.079       .  S
Fe155       O168   2.075       .  S
Fe155       O160   2.050       .  S
Fe155       O166   1.958       .  S
Fe156       O159   2.061       .  S
Fe156       O163   2.080       .  S
Fe156       O167   2.050       .  S
Fe156       O172   2.087       .  S
Fe156       O166   1.943       .  S
Fe157       O175   2.091       .  S
Fe157       O162   2.068       .  S
Fe157       O169   2.056       .  S
Fe157       O158   2.102   1_565  S
Fe157       O166   1.958       .  S
O158        C165   1.272       .  A
O159        C173   1.264       .  A
O160        C165   1.264   1_565  A
O161        C164   1.274       .  A
O162        C174   1.274       .  A
O163        C176   1.271       .  A
C164        O169   1.272       .  A
C164        C882   1.455       .  S
C165        C723   1.481       .  S
O167        C170   1.269       .  A
O168        C170   1.270       .  A
C170        C867   1.463       .  S
O171        C176   1.267       .  A
O172        C174   1.276       .  A
C173        O175   1.270       .  A
C173       C1173   1.475       .  S
C174        C759   1.466       .  S
C176        C795   1.473       .  S
Fe177       O193   2.054       .  S
Fe177       O183   2.039       .  S
Fe177       O190   2.077       .  S
Fe177       O182   2.034       .  S
Fe177       O188   1.954       .  S
Fe178       O181   2.065       .  S
Fe178       O185   2.066       .  S
Fe178       O189   2.069       .  S
Fe178       O194   2.052       .  S
Fe178       O188   1.958       .  S
Fe179       O197   2.089       .  S
Fe179       O184   2.074       .  S
Fe179       O191   2.094       .  S
Fe179       O180   2.094       .  S
Fe179       O188   1.980       .  S
O180        C187   1.279       .  A
O181        C195   1.275       .  A
O182        C187   1.271       .  A
O183        C186   1.262       .  A
O184        C196   1.267       .  A
O185        C198   1.268       .  A
C186        O191   1.269       .  A
C186       C1029   1.484       .  S
C187        C684   1.462       .  S
O189        C192   1.268       .  A
O190        C192   1.268       .  A
C192        C669   1.475       .  S
O193        C198   1.265       .  A
O194        C196   1.262       .  A
C195        O197   1.279       .  A
C195        C651   1.466       .  S
C196        C633   1.470       .  S
C198        C702   1.456       .  S
Fe199       O215   2.056       .  S
Fe199       O205   2.068       .  S
Fe199       O212   2.079       .  S
Fe199       O204   2.032       .  S
Fe199       O210   1.934       .  S
Fe200       O203   2.053       .  S
Fe200       O207   2.082       .  S
Fe200       O211   2.074       .  S
Fe200       O216   2.075       .  S
Fe200       O210   1.941       .  S
Fe201       O219   2.105       .  S
Fe201       O206   2.076       .  S
Fe201       O213   2.093       .  S
Fe201       O202   2.093       .  S
Fe201       O210   1.950       .  S
O202        C209   1.276       .  A
O203        C217   1.272       .  A
O204        C209   1.268       .  A
O205        C208   1.269       .  A
O206        C218   1.268       .  A
O207        C220   1.272       .  A
C208        O213   1.273       .  A
C208        C777   1.484       .  S
C209        C576   1.459       .  S
O211        C214   1.270       .  A
O212        C214   1.270       .  A
C214        C594   1.473       .  S
O215        C220   1.268       .  A
O216        C218   1.268       .  A
C217        O219   1.281       .  A
C217        C648   1.468       .  S
C218        C612   1.473       .  S
C220        C558   1.458       .  S
Fe221       O237   2.063       .  S
Fe221       O227   2.072       .  S
Fe221       O234   2.074       .  S
Fe221       O226   2.060       .  S
Fe221       O232   1.965       .  S
Fe222       O225   2.042       .  S
Fe222       O229   2.070       .  S
Fe222       O233   2.044       .  S
Fe222       O238   2.077       .  S
Fe222       O232   1.955       .  S
Fe223       O241   2.085       .  S
Fe223       O228   2.081       .  S
Fe223       O235   2.066       .  S
Fe223       O224   2.087       .  S
Fe223       O232   1.972       .  S
O224        C231   1.269       .  A
O225        C239   1.261       .  A
O226        C231   1.268       .  A
O227        C230   1.274       .  A
O228        C240   1.275       .  A
O229        C242   1.269       .  A
C230        O235   1.274       .  A
C230        C561   1.467       .  S
C231        C900   1.481   1_655  S
O233        C236   1.266       .  A
O234        C236   1.270       .  A
C236        C579   1.461       .  S
O237        C242   1.267       .  A
O238        C240   1.273       .  A
C239        O241   1.269       .  A
C239        C522   1.469       .  S
C240        C540   1.470       .  S
C242        C630   1.472       .  S
Fe243       O259   2.061       .  S
Fe243       O249   2.071       .  S
Fe243       O256   2.078       .  S
Fe243       O248   2.053       .  S
Fe243       O254   1.970       .  S
Fe244       O247   2.049       .  S
Fe244       O251   2.064       .  S
Fe244       O255   2.039       .  S
Fe244       O260   2.080       .  S
Fe244       O254   1.955       .  S
Fe245       O263   2.089       .  S
Fe245       O250   2.077       .  S
Fe245       O257   2.058       .  S
Fe245       O246   2.089       .  S
Fe245       O254   1.964       .  S
O246        C253   1.268       .  A
O247        C261   1.260       .  A
O248        C253   1.266       .  A
O249        C252   1.274       .  A
O250        C262   1.276       .  A
O251        C264   1.268       .  A
C252        O257   1.274       .  A
C252        C486   1.457       .  S
C253        C720   1.476       .  S
O255        C258   1.266       .  A
O256        C258   1.271       .  A
C258        C468   1.462       .  S
O259        C264   1.267       .  A
O260        C262   1.275       .  A
C261        O263   1.269       .  A
C261        C597   1.475       .  S
C262        C543   1.469       .  S
C264        C507   1.466       .  S
Fe265       O281   2.053       .  S
Fe265       O271   2.055       .  S
Fe265       O278   2.069       .  S
Fe265       O270   2.038       .  S
Fe265       O276   1.948       .  S
Fe266       O269   2.070       .  S
Fe266       O273   2.080       .  S
Fe266       O277   2.079       .  S
Fe266       O282   2.068       .  S
Fe266       O276   1.949       .  S
Fe267       O285   2.090       .  S
Fe267       O272   2.057       .  S
Fe267       O279   2.085       .  S
Fe267       O268   2.105       .  S
Fe267       O276   1.965       .  S
O268        C275   1.280       .  A
O269        C283   1.273       .  A
O270        C275   1.272       .  A
O271        C274   1.263       .  A
O272        C284   1.267       .  A
O273        C286   1.275       .  A
C274        O279   1.267       .  A
C274       C1119   1.478       .  S
C275        C432   1.463       .  S
O277        C280   1.266       .  A
O278        C280   1.264       .  A
C280        C396   1.476       .  S
O281        C286   1.271       .  A
O282        C284   1.268       .  A
C283        O285   1.276       .  A
C283        C414   1.473       .  S
C284        C504   1.465       .  S
C286        C453   1.452       .  S
Fe287       O303   2.052       .  S
Fe287       O293   2.048       .  S
Fe287       O300   2.070       .  S
Fe287       O292   2.034       .  S
Fe287       O298   1.943       .  S
Fe288       O291   2.066       .  S
Fe288       O295   2.071       .  S
Fe288       O299   2.074       .  S
Fe288       O304   2.057       .  S
Fe288       O298   1.949       .  S
Fe289       O307   2.096       .  S
Fe289       O294   2.062       .  S
Fe289       O301   2.086       .  S
Fe289       O290   2.099       .  S
Fe289       O298   1.966       .  S
O290        C297   1.279       .  A
O291        C305   1.274       .  A
O292        C297   1.269       .  A
O293        C296   1.264       .  A
O294        C306   1.266       .  A
O295        C308   1.271       .  A
C296        O301   1.268       .  A
C296        C810   1.479       .  S
C297        C471   1.460       .  S
O299        C302   1.268       .  A
O300        C302   1.266       .  A
C302        C525   1.472       .  S
O303        C308   1.267       .  A
O304        C306   1.265       .  A
C305        O307   1.279       .  A
C305        C417   1.472       .  S
C306        C378   1.466       .  S
C308        C489   1.453       .  S
Fe309       O325   2.061       .  S
Fe309       O315   2.061       .  S
Fe309       O322   2.086       .  S
Fe309       O314   2.060       .  S
Fe309       O320   1.954       .  S
Fe310       O313   2.057       .  S
Fe310       O317   2.092       .  S
Fe310       O321   2.044       .  S
Fe310       O326   2.082       .  S
Fe310       O320   1.950       .  S
Fe311       O329   2.092       .  S
Fe311       O316   2.072       .  S
Fe311       O323   2.058       .  S
Fe311       O312   2.100       .  S
Fe311       O320   1.953       .  S
O312        C319   1.275       .  A
O313        C327   1.268       .  A
O314        C319   1.271       .  A
O315        C318   1.268       .  A
O316        C328   1.271       .  A
O317        C330   1.271       .  A
C318        O323   1.269       .  A
C318        C705   1.455       .  S
C319        C975   1.482       .  S
O321        C324   1.268       .  A
O322        C324   1.272       .  A
C324        C687   1.463       .  S
O325        C330   1.267       .  A
O326        C328   1.272       .  A
C327        O329   1.274       .  A
C327        C399   1.475       .  S
C328        C360   1.469       .  S
C330        C615   1.474       .  S
Fe331       O347   2.055       .  S
Fe331       O337   2.065       .  S
Fe331       O344   2.065       .  S
Fe331       O336   2.047       .  S
Fe331       O342   1.969       .  S
Fe332       O335   2.048       .  S
Fe332       O339   2.067       .  S
Fe332       O343   2.047       .  S
Fe332       O348   2.077       .  S
Fe332       O342   1.953       .  S
Fe333       O351   2.088       .  S
Fe333       O338   2.077       .  S
Fe333       O345   2.060       .  S
Fe333       O334   2.095       .  S
Fe333       O342   1.977       .  S
O334        C341   1.271       .  A
O335        C349   1.261       .  A
O336        C341   1.264       .  A
O337        C340   1.271       .  A
O338        C350   1.275       .  A
O339        C352   1.268       .  A
C340        O345   1.273       .  A
C340        C450   1.461       .  S
C341        C741   1.478       .  S
O343        C346   1.266       .  A
O344        C346   1.267       .  A
C346        C435   1.463       .  S
O347        C352   1.266       .  A
O348        C350   1.274       .  A
C349        O351   1.269       .  A
C349        C666   1.475       .  S
C350        C363   1.469       .  S
C352        C381   1.461       .  S
C353        C358   1.385   1_554  A
C353        C354   1.408       .  A
C353        N359   1.349   1_554  A
C354        C355   1.408       .  A
C354        H365   1.082       .  S
C355        C364   1.385       .  A
C355        C356   1.385       .  A
C356        C357   1.402   1_554  A
C356        N362   1.342       .  A
C357        C358   1.401       .  A
C357        H366   1.083       .  S
C358        C361   1.376       .  A
N359        C360   1.357       .  A
N359        H369   1.044       .  S
C360        C361   1.393       .  A
C361        H367   1.083       .  S
N362        C363   1.354       .  A
N362        H370   1.045       .  S
C363        C364   1.397       .  A
C364        H368   1.082       .  S
C371        C376   1.385       .  A
C371        C372   1.403       .  A
C371        N377   1.343       .  A
C372        C373   1.402       .  A
C372        H383   1.082       .  S
C373        C382   1.376       .  A
C373        C374   1.386       .  A
C374        C375   1.401       .  A
C374        N380   1.342       .  A
C375        C376   1.401       .  A
C375        H384   1.082       .  S
C376        C379   1.374       .  A
N377        C378   1.355       .  A
N377        H387   1.045       .  S
C378        C379   1.394       .  A
C379        H385   1.083       .  S
N380        C381   1.353       .  A
N380        H388   1.045       .  S
C381        C382   1.393       .  A
C382        H386   1.082       .  S
C389        C394   1.385       .  A
C389        C390   1.406       .  A
C389        N395   1.348       .  A
C390        C391   1.406       .  A
C390        H401   1.082       .  S
C391        C400   1.381       .  A
C391        C392   1.384       .  A
C392        C393   1.402       .  A
C392        N398   1.344       .  A
C393        C394   1.403       .  A
C393        H402   1.083       .  S
C394        C397   1.375       .  A
N395        C396   1.356       .  A
N395        H405   1.044       .  S
C396        C397   1.397       .  A
C397        H403   1.083       .  S
N398        C399   1.356       .  A
N398        H406   1.045       .  S
C399        C400   1.397       .  A
C400        H404   1.082       .  S
C407        C412   1.384       .  A
C407        C408   1.406       .  A
C407        N413   1.346       .  A
C408        C409   1.405       .  A
C408        H419   1.083       .  S
C409        C418   1.381       .  A
C409        C410   1.385       .  A
C410        C411   1.405       .  A
C410        N416   1.345       .  A
C411        C412   1.404       .  A
C411        H420   1.082       .  S
C412        C415   1.381       .  A
N413        C414   1.356       .  A
N413        H423   1.044       .  S
C414        C415   1.396       .  A
C415        H421   1.082       .  S
N416        C417   1.355       .  A
N416        H424   1.044       .  S
C417        C418   1.396       .  A
C418        H422   1.082       .  S
C425        C430   1.385       .  A
C425        C426   1.407       .  A
C425        N431   1.347       .  A
C426        C427   1.406       .  A
C426        H437   1.082       .  S
C427        C436   1.381   1_556  A
C427        C428   1.385       .  A
C428        C429   1.395       .  A
C428        N434   1.336   1_556  A
C429        C430   1.394       .  A
C429        H438   1.083       .  S
C430        C433   1.367       .  A
N431        C432   1.357       .  A
N431        H441   1.045       .  S
C432        C433   1.390       .  A
C433        H439   1.083       .  S
N434        C435   1.352       .  A
N434        H442   1.045       .  S
C435        C436   1.398       .  A
C436        H440   1.082       .  S
C443        C448   1.385       .  A
C443        C444   1.402       .  A
C443        N449   1.339       .  A
C444        C445   1.400       .  A
C444        H455   1.082       .  S
C445        C454   1.380       .  A
C445        C446   1.386       .  A
C446        C447   1.400       .  A
C446        N452   1.336       .  A
C447        C448   1.397       .  A
C447        H456   1.083       .  S
C448        C451   1.376       .  A
N449        C450   1.355       .  A
N449        H459   1.045       .  S
C450        C451   1.392       .  A
C451        H457   1.083       .  S
N452        C453   1.351       .  A
N452        H460   1.045       .  S
C453        C454   1.392       .  A
C454        H458   1.082       .  S
C461        C466   1.385       .  A
C461        C462   1.405       .  A
C461        N467   1.345   1_554  A
C462        C463   1.404       .  A
C462        H473   1.082       .  S
C463        C472   1.381       .  A
C463        C464   1.385       .  A
C464        C465   1.396       .  A
C464        N470   1.336       .  A
C465        C466   1.395       .  A
C465        H474   1.083       .  S
C466        C469   1.368       .  A
N467        C468   1.356       .  A
N467        H477   1.045       .  S
C468        C469   1.392   1_556  A
C469        H475   1.083       .  S
N470        C471   1.353       .  A
N470        H478   1.045       .  S
C471        C472   1.395       .  A
C472        H476   1.082       .  S
C479        C484   1.387       .  A
C479        C480   1.395       .  A
C479        N485   1.339       .  A
C480        C481   1.395       .  A
C480        H491   1.083       .  S
C481        C490   1.366       .  A
C481        C482   1.387       .  A
C482        C483   1.401       .  A
C482        N488   1.345       .  A
C483        C484   1.402       .  A
C483        H492   1.082       .  S
C484        C487   1.374       .  A
N485        C486   1.350       .  A
N485        H495   1.045       .  S
C486        C487   1.395       .  A
C487        H493   1.083       .  S
N488        C489   1.353       .  A
N488        H496   1.044       .  S
C489        C490   1.389       .  A
C490        H494   1.083       .  S
C497        C502   1.385       .  A
C497        C498   1.403       .  A
C497        N503   1.344       .  A
C498        C499   1.402       .  A
C498        H509   1.082       .  S
C499        C508   1.376       .  A
C499        C500   1.385       .  A
C500        C501   1.402       .  A
C500        N506   1.343       .  A
C501        C502   1.401       .  A
C501        H510   1.082       .  S
C502        C505   1.375       .  A
N503        C504   1.355       .  A
N503        H513   1.044       .  S
C504        C505   1.393       .  A
C505        H511   1.082       .  S
N506        C507   1.354       .  A
N506        H514   1.045       .  S
C507        C508   1.394       .  A
C508        H512   1.082       .  S
C515        C520   1.384       .  A
C515        C516   1.406       .  A
C515        N521   1.342       .  A
C516        C517   1.404       .  A
C516        H527   1.082       .  S
C517        C526   1.384       .  A
C517        C518   1.384       .  A
C518        C519   1.402       .  A
C518        N524   1.339       .  A
C519        C520   1.399       .  A
C519        H528   1.082       .  S
C520        C523   1.378       .  A
N521        C522   1.357       .  A
N521        H531   1.045       .  S
C522        C523   1.394       .  A
C523        H529   1.083       .  S
N524        C525   1.356       .  A
N524        H532   1.045       .  S
C525        C526   1.396       .  A
C526        H530   1.082       .  S
C533        C538   1.384       .  A
C533        C534   1.405   1_554  A
C533        N539   1.345       .  A
C534        C535   1.403       .  A
C534        H545   1.082       .  S
C535        C544   1.380       .  A
C535        C536   1.384   1_556  A
C536        C537   1.407       .  A
C536        N542   1.347   1_554  A
C537        C538   1.406       .  A
C537        H546   1.082       .  S
C538        C541   1.383       .  A
N539        C540   1.355       .  A
N539        H549   1.045       .  S
C540        C541   1.397       .  A
C541        H547   1.083       .  S
N542        C543   1.357       .  A
N542        H550   1.045       .  S
C543        C544   1.394       .  A
C544        H548   1.083       .  S
C551        C556   1.386       .  A
C551        C552   1.401       .  A
C551        N557   1.345       .  A
C552        C553   1.402       .  A
C552        H563   1.082       .  S
C553        C562   1.374       .  A
C553        C554   1.385       .  A
C554        C555   1.400       .  A
C554        N560   1.343       .  A
C555        C556   1.401       .  A
C555        H564   1.083       .  S
C556        C559   1.372       .  A
N557        C558   1.353       .  A
N557        H567   1.044       .  S
C558        C559   1.391       .  A
C559        H565   1.083       .  S
N560        C561   1.354       .  A
N560        H568   1.045       .  S
C561        C562   1.395       .  A
C562        H566   1.083       .  S
C569        C574   1.385       .  A
C569        C570   1.396       .  A
C569        N575   1.335       .  A
C570        C571   1.395       .  A
C570        H581   1.083       .  S
C571        C580   1.370   1_556  A
C571        C572   1.385   1_556  A
C572        C573   1.404   1_554  A
C572        N578   1.343       .  A
C573        C574   1.403       .  A
C573        H582   1.082       .  S
C574        C577   1.380       .  A
N575        C576   1.352       .  A
N575        H585   1.045       .  S
C576        C577   1.394       .  A
C577        H583   1.082       .  S
N578        C579   1.356       .  A
N578        H586   1.045       .  S
C579        C580   1.391       .  A
C580        H584   1.083       .  S
C587        C592   1.384       .  A
C587        C588   1.401       .  A
C587        N593   1.339       .  A
C588        C589   1.398       .  A
C588        H599   1.082       .  S
C589        C598   1.377       .  A
C589        C590   1.384       .  A
C590        C591   1.409       .  A
C590        N596   1.346       .  A
C591        C592   1.407       .  A
C591        H600   1.082       .  S
C592        C595   1.386       .  A
N593        C594   1.355       .  A
N593        H603   1.045       .  S
C594        C595   1.398       .  A
C595        H601   1.082       .  S
N596        C597   1.359       .  A
N596        H604   1.045       .  S
C597        C598   1.393       .  A
C598        H602   1.082       .  S
C605        C610   1.384       .  A
C605        C606   1.408       .  A
C605        N611   1.348       .  A
C606        C607   1.408       .  A
C606        H617   1.082       .  S
C607        C616   1.384       .  A
C607        C608   1.385       .  A
C608        C609   1.402       .  A
C608        N614   1.343       .  A
C609        C610   1.401       .  A
C609        H618   1.082       .  S
C610        C613   1.376       .  A
N611        C612   1.358       .  A
N611        H621   1.041       .  S
C612        C613   1.393       .  A
C613        H619   1.082       .  S
N614        C615   1.355       .  A
N614        H622   1.046       .  S
C615        C616   1.398       .  A
C616        H620   1.082       .  S
C623        C628   1.384       .  A
C623        C624   1.405       .  A
C623        N629   1.344       .  A
C624        C625   1.404       .  A
C624        H635   1.082       .  S
C625        C634   1.380       .  A
C625        C626   1.385       .  A
C626        C627   1.404       .  A
C626        N632   1.344       .  A
C627        C628   1.403       .  A
C627        H636   1.082       .  S
C628        C631   1.379       .  A
N629        C630   1.356       .  A
N629        H639   1.045       .  S
C630        C631   1.395       .  A
C631        H637   1.082       .  S
N632        C633   1.356       .  A
N632        H640   1.045       .  S
C633        C634   1.395       .  A
C634        H638   1.082       .  S
C641        C646   1.385       .  A
C641        C642   1.405       .  A
C641        N647   1.345       .  A
C642        C643   1.404       .  A
C642        H653   1.083       .  S
C643        C652   1.379       .  A
C643        C644   1.385       .  A
C644        C645   1.403       .  A
C644        N650   1.344       .  A
C645        C646   1.403       .  A
C645        H654   1.083       .  S
C646        C649   1.378       .  A
N647        C648   1.356       .  A
N647        H657   1.045       .  S
C648        C649   1.394       .  A
C649        H655   1.083       .  S
N650        C651   1.355       .  A
N650        H658   1.045       .  S
C651        C652   1.394       .  A
C652        H656   1.083       .  S
C659        C664   1.384       .  A
C659        C660   1.406       .  A
C659        N665   1.343       .  A
C660        C661   1.404       .  A
C660        H671   1.082       .  S
C661        C670   1.382       .  A
C661        C662   1.384       .  A
C662        C663   1.404       .  A
C662        N668   1.342       .  A
C663        C664   1.403       .  A
C663        H672   1.082       .  S
C664        C667   1.381       .  A
N665        C666   1.357       .  A
N665        H675   1.045       .  S
C666        C667   1.395       .  A
C667        H673   1.082       .  S
N668        C669   1.357       .  A
N668        H676   1.045       .  S
C669        C670   1.396       .  A
C670        H674   1.082       .  S
C677        C682   1.385       .  A
C677        C678   1.407       .  A
C677        N683   1.348       .  A
C678        C679   1.408       .  A
C678        H689   1.082       .  S
C679        C688   1.382   1_554  A
C679        C680   1.386       .  A
C680        C681   1.393       .  A
C680        N686   1.336       .  A
C681        C682   1.392       .  A
C681        H690   1.083       .  S
C682        C685   1.363       .  A
N683        C684   1.357       .  A
N683        H693   1.045       .  S
C684        C685   1.389       .  A
C685        H691   1.083       .  S
N686        C687   1.351   1_554  A
N686        H694   1.045       .  S
C687        C688   1.398       .  A
C688        H692   1.082       .  S
C695        C700   1.385       .  A
C695        C696   1.398       .  A
C695        N701   1.335       .  A
C696        C697   1.395       .  A
C696        H707   1.083       .  S
C697        C706   1.373       .  A
C697        C698   1.385       .  A
C698        C699   1.403       .  A
C698        N704   1.339       .  A
C699        C700   1.400       .  A
C699        H708   1.082       .  S
C700        C703   1.380       .  A
N701        C702   1.352       .  A
N701        H711   1.045       .  S
C702        C703   1.393       .  A
C703        H709   1.082       .  S
N704        C705   1.355       .  A
N704        H712   1.045       .  S
C705        C706   1.390       .  A
C706        H710   1.083       .  S
C713        C718   1.383       .  A
C713        C714   1.411       .  A
C713        N719   1.352       .  A
C714        C715   1.411       .  A
C714        H725   1.082       .  S
C715        C724   1.388       .  A
C715        C716   1.384       .  A
C716        C717   1.402       .  A
C716        N722   1.342       .  A
C717        C718   1.401       .  A
C717        H726   1.083       .  S
C718        C721   1.375   1_455  A
N719        C720   1.359   1_455  A
N719        H729   1.044       .  S
C720        C721   1.394       .  A
C721        H727   1.083       .  S
N722        C723   1.356       .  A
N722        H730   1.045       .  S
C723        C724   1.401       .  A
C724        H728   1.082       .  S
C731        C736   1.383       .  A
C731        C732   1.400       .  A
C731        N737   1.339       .  A
C732        C733   1.399       .  A
C732        H743   1.083       .  S
C733        C742   1.373       .  A
C733        C734   1.383       .  A
C734        C735   1.412       .  A
C734        N740   1.350       .  A
C735        C736   1.410       .  A
C735        H744   1.082       .  S
C736        C739   1.390       .  A
N737        C738   1.355       .  A
N737        H747   1.045   1_545  S
C738        C739   1.400       .  A
C739        H745   1.082       .  S
N740        C741   1.360       .  A
N740        H748   1.044       .  S
C741        C742   1.395       .  A
C742        H746   1.083       .  S
C749        C754   1.384       .  A
C749        C750   1.406       .  A
C749        N755   1.346       .  A
C750        C751   1.405       .  A
C750        H761   1.082       .  S
C751        C760   1.382       .  A
C751        C752   1.384       .  A
C752        C753   1.404       .  A
C752        N758   1.344       .  A
C753        C754   1.403       .  A
C753        H762   1.083       .  S
C754        C757   1.379       .  A
N755        C756   1.356       .  A
N755        H765   1.044       .  S
C756        C757   1.396       .  A
C757        H763   1.083       .  S
N758        C759   1.355       .  A
N758        H766   1.045       .  S
C759        C760   1.395       .  A
C760        H764   1.082       .  S
C767        C772   1.383       .  A
C767        C768   1.414       .  A
C767        N773   1.351       .  A
C768        C769   1.413       .  A
C768        H779   1.082       .  S
C769        C778   1.394       .  A
C769        C770   1.383       .  A
C770        C771   1.401       .  A
C770        N776   1.340       .  A
C771        C772   1.399       .  A
C771        H780   1.083       .  S
C772        C775   1.376       .  A
N773        C774   1.361       .  A
N773        H783   1.044       .  S
C774        C775   1.395       .  A
C775        H781   1.083       .  S
N776        C777   1.356       .  A
N776        H784   1.045       .  S
C777        C778   1.402       .  A
C778        H782   1.082       .  S
C785        C790   1.384       .  A
C785        C786   1.405       .  A
C785        N791   1.344       .  A
C786        C787   1.404       .  A
C786        H797   1.082       .  S
C787        C796   1.380       .  A
C787        C788   1.384       .  A
C788        C789   1.404       .  A
C788        N794   1.344       .  A
C789        C790   1.403       .  A
C789        H798   1.082       .  S
C790        C793   1.379       .  A
N791        C792   1.357       .  A
N791        H801   1.045       .  S
C792        C793   1.396       .  A
C793        H799   1.082       .  S
N794        C795   1.356       .  A
N794        H802   1.045       .  S
C795        C796   1.395       .  A
C796        H800   1.082       .  S
C803        C808   1.383       .  A
C803        C804   1.395       .  A
C803        N809   1.335   1_565  A
C804        C805   1.393       .  A
C804        H815   1.083       .  S
C805        C814   1.366       .  A
C805        C806   1.383       .  A
C806        C807   1.417       .  A
C806        N812   1.354       .  A
C807        C808   1.416       .  A
C807        H816   1.082       .  S
C808        C811   1.395       .  A
N809        C810   1.353       .  A
N809        H819   1.045       .  S
C810        C811   1.404   1_545  A
C811        H817   1.082       .  S
N812        C813   1.363       .  A
N812        H820   1.044       .  S
C813        C814   1.393       .  A
C814        H818   1.083       .  S
C821        C826   1.384       .  A
C821        C822   1.404       .  A
C821        N827   1.343       .  A
C822        C823   1.403       .  A
C822        H833   1.082       .  S
C823        C832   1.379       .  A
C823        C824   1.385       .  A
C824        C825   1.404       .  A
C824        N830   1.343       .  A
C825        C826   1.403       .  A
C825        H834   1.082       .  S
C826        C829   1.379       .  A
N827        C828   1.356       .  A
N827        H837   1.045       .  S
C828        C829   1.395       .  A
C829        H835   1.082       .  S
N830        C831   1.355       .  A
N830        H838   1.045       .  S
C831        C832   1.395       .  A
C832        H836   1.082       .  S
C839        C844   1.384   1_455  A
C839        C840   1.401   1_554  A
C839        N845   1.341       .  A
C840        C841   1.399       .  A
C840        H851   1.083       .  S
C841        C850   1.375       .  A
C841        C842   1.384   1_455  A
C842        C843   1.410   1_556  A
C842        N848   1.349   1_655  A
C843        C844   1.410       .  A
C843        H852   1.082       .  S
C844        C847   1.387   1_655  A
N845        C846   1.354       .  A
N845        H855   1.045       .  S
C846        C847   1.400       .  A
C847        H853   1.082       .  S
N848        C849   1.358       .  A
N848        H856   1.044       .  S
C849        C850   1.391       .  A
C850        H854   1.083       .  S
C857        C862   1.385       .  A
C857        C858   1.396       .  A
C857        N863   1.335       .  A
C858        C859   1.394       .  A
C858        H869   1.083       .  S
C859        C868   1.370       .  A
C859        C860   1.385       .  A
C860        C861   1.408       .  A
C860        N866   1.345       .  A
C861        C862   1.406       .  A
C861        H870   1.082       .  S
C862        C865   1.385       .  A
N863        C864   1.353       .  A
N863        H873   1.045       .  S
C864        C865   1.397       .  A
C865        H871   1.082       .  S
N866        C867   1.357       .  A
N866        H874   1.045       .  S
C867        C868   1.390       .  A
C868        H872   1.083       .  S
C875        C880   1.386       .  A
C875        C876   1.397       .  A
C875        N881   1.339       .  A
C876        C877   1.397       .  A
C876        H887   1.083       .  S
C877        C886   1.367   1_556  A
C877        C878   1.385       .  A
C878        C879   1.401       .  A
C878        N884   1.344   1_556  A
C879        C880   1.402       .  A
C879        H888   1.082       .  S
C880        C883   1.375       .  A
N881        C882   1.351       .  A
N881        H891   1.045       .  S
C882        C883   1.393       .  A
C883        H889   1.082       .  S
N884        C885   1.354       .  A
N884        H892   1.044       .  S
C885        C886   1.392       .  A
C886        H890   1.083       .  S
C893        C898   1.383       .  A
C893        C894   1.414       .  A
C893        N899   1.350       .  A
C894        C895   1.412       .  A
C894        H905   1.082       .  S
C895        C904   1.393       .  A
C895        C896   1.383       .  A
C896        C897   1.399       .  A
C896        N902   1.337       .  A
C897        C898   1.397       .  A
C897        H906   1.083       .  S
C898        C901   1.374       .  A
N899        C900   1.362       .  A
N899        H909   1.045       .  S
C900        C901   1.394       .  A
C901        H907   1.083   1_455  S
N902        C903   1.355       .  A
N902        H910   1.045       .  S
C903        C904   1.402       .  A
C904        H908   1.082       .  S
C911        C916   1.385       .  A
C911        C912   1.398       .  A
C911        N917   1.336       .  A
C912        C913   1.396       .  A
C912        H923   1.083       .  S
C913        C922   1.373       .  A
C913        C914   1.385       .  A
C914        C915   1.405       .  A
C914        N920   1.342       .  A
C915        C916   1.403       .  A
C915        H924   1.082       .  S
C916        C919   1.383       .  A
N917        C918   1.352       .  A
N917        H927   1.045       .  S
C918        C919   1.394       .  A
C919        H925   1.082       .  S
N920        C921   1.355       .  A
N920        H928   1.044       .  S
C921        C922   1.391       .  A
C922        H926   1.083       .  S
C929        C934   1.385       .  A
C929        C930   1.407       .  A
C929        N935   1.348       .  A
C930        C931   1.407       .  A
C930        H941   1.082       .  S
C931        C940   1.381   1_554  A
C931        C932   1.385       .  A
C932        C933   1.394       .  A
C932        N938   1.336       .  A
C933        C934   1.393       .  A
C933        H942   1.083       .  S
C934        C937   1.364       .  A
N935        C936   1.356       .  A
N935        H945   1.045       .  S
C936        C937   1.390       .  A
C937        H943   1.083       .  S
N938        C939   1.352   1_554  A
N938        H946   1.045       .  S
C939        C940   1.397       .  A
C940        H944   1.082       .  S
C947        C952   1.385       .  A
C947        C948   1.399       .  A
C947        N953   1.337       .  A
C948        C949   1.396       .  A
C948        H959   1.082       .  S
C949        C958   1.375       .  A
C949        C950   1.385       .  A
C950        C951   1.404       .  A
C950        N956   1.340       .  A
C951        C952   1.402       .  A
C951        H960   1.082       .  S
C952        C955   1.380       .  A
N953        C954   1.353       .  A
N953        H963   1.044       .  S
C954        C955   1.395       .  A
C955        H961   1.082       .  S
N956        C957   1.356       .  A
N956        H964   1.045       .  S
C957        C958   1.390       .  A
C958        H962   1.082       .  S
C965        C970   1.383       .  A
C965        C966   1.412       .  A
C965        N971   1.352       .  A
C966        C967   1.412       .  A
C966        H977   1.082       .  S
C967        C976   1.388       .  A
C967        C968   1.384       .  A
C968        C969   1.403       .  A
C968        N974   1.343       .  A
C969        C970   1.402       .  A
C969        H978   1.082       .  S
C970        C973   1.375       .  A
N971        C972   1.360       .  A
N971        H981   1.044       .  S
C972        C973   1.395       .  A
C973        H979   1.083       .  S
N974        C975   1.356       .  A
N974        H982   1.045       .  S
C975        C976   1.402       .  A
C976        H980   1.082       .  S
C983        C988   1.384       .  A
C983        C984   1.406       .  A
C983        N989   1.346       .  A
C984        C985   1.406       .  A
C984        H995   1.082       .  S
C985        C994   1.382       .  A
C985        C986   1.384       .  A
C986        C987   1.404       .  A
C986        N992   1.344       .  A
C987        C988   1.403       .  A
C987        H996   1.082       .  S
C988        C991   1.379       .  A
N989        C990   1.357       .  A
N989        H999   1.045       .  S
C990        C991   1.395       .  A
C991        H997   1.083       .  S
N992        C993   1.357       .  A
N992       H1000   1.045       .  S
C993        C994   1.398       .  A
C994        H998   1.082       .  S
C1001      C1006   1.384       .  A
C1001      C1002   1.408       .  A
C1001      N1007   1.349       .  A
C1002      C1003   1.407       .  A
C1002      H1013   1.082       .  S
C1003      C1012   1.385       .  A
C1003      C1004   1.384       .  A
C1004      C1005   1.404       .  A
C1004      N1010   1.344       .  A
C1005      C1006   1.403       .  A
C1005      H1014   1.083       .  S
C1006      C1009   1.377       .  A
N1007      C1008   1.357       .  A
N1007      H1017   1.045       .  S
C1008      C1009   1.395       .  A
C1009      H1015   1.083       .  S
N1010      C1011   1.356       .  A
N1010      H1018   1.045       .  S
C1011      C1012   1.397       .  A
C1012      H1016   1.082       .  S
C1019      C1024   1.383       .  A
C1019      C1020   1.397       .  A
C1019      N1025   1.338       .  A
C1020      C1021   1.397       .  A
C1020      H1031   1.083       .  S
C1021      C1030   1.368       .  A
C1021      C1022   1.382       .  A
C1022      C1023   1.415       .  A
C1022      N1028   1.355       .  A
C1023      C1024   1.415       .  A
C1023      H1032   1.082       .  S
C1024      C1027   1.393       .  A
N1025      C1026   1.355       .  A
N1025      H1035   1.045       .  S
C1026      C1027   1.403       .  A
C1027      H1033   1.082       .  S
N1028      C1029   1.362       .  A
N1028      H1036   1.044       .  S
C1029      C1030   1.395       .  A
C1030      H1034   1.083       .  S
C1037      C1042   1.385       .  A
C1037      C1038   1.399       .  A
C1037      N1043   1.336   1_556  A
C1038      C1039   1.397       .  A
C1038      H1049   1.083       .  S
C1039      C1048   1.375       .  A
C1039      C1040   1.385       .  A
C1040      C1041   1.404       .  A
C1040      N1046   1.341       .  A
C1041      C1042   1.401       .  A
C1041      H1050   1.082       .  S
C1042      C1045   1.382   1_556  A
N1043      C1044   1.353       .  A
N1043      H1053   1.045       .  S
C1044      C1045   1.393       .  A
C1045      H1051   1.082       .  S
N1046      C1047   1.355       .  A
N1046      H1054   1.045       .  S
C1047      C1048   1.391       .  A
C1048      H1052   1.083       .  S
C1055      C1060   1.385       .  A
C1055      C1056   1.394       .  A
C1055      N1061   1.335       .  A
C1056      C1057   1.393       .  A
C1056      H1067   1.083       .  S
C1057      C1066   1.366       .  A
C1057      C1058   1.385       .  A
C1058      C1059   1.408       .  A
C1058      N1064   1.347       .  A
C1059      C1060   1.407       .  A
C1059      H1068   1.082       .  S
C1060      C1063   1.383       .  A
N1061      C1062   1.352       .  A
N1061      H1071   1.045       .  S
C1062      C1063   1.399       .  A
C1063      H1069   1.082       .  S
N1064      C1065   1.356       .  A
N1064      H1072   1.044       .  S
C1065      C1066   1.389       .  A
C1066      H1070   1.083       .  S
C1073      C1078   1.384       .  A
C1073      C1074   1.406       .  A
C1073      N1079   1.344       .  A
C1074      C1075   1.404       .  A
C1074      H1085   1.082       .  S
C1075      C1084   1.382       .  A
C1075      C1076   1.385       .  A
C1076      C1077   1.402       .  A
C1076      N1082   1.341       .  A
C1077      C1078   1.400       .  A
C1077      H1086   1.082       .  S
C1078      C1081   1.377       .  A
N1079      C1080   1.357       .  A
N1079      H1089   1.045       .  S
C1080      C1081   1.394       .  A
C1081      H1087   1.082       .  S
N1082      C1083   1.354       .  A
N1082      H1090   1.045       .  S
C1083      C1084   1.395       .  A
C1084      H1088   1.082       .  S
C1091      C1096   1.385       .  A
C1091      C1092   1.402       .  A
C1091      N1097   1.346       .  A
C1092      C1093   1.403       .  A
C1092      H1103   1.082       .  S
C1093      C1102   1.374       .  A
C1093      C1094   1.386       .  A
C1094      C1095   1.399       .  A
C1094      N1100   1.343       .  A
C1095      C1096   1.400       .  A
C1095      H1104   1.082       .  S
C1096      C1099   1.371       .  A
N1097      C1098   1.355       .  A
N1097      H1107   1.045       .  S
C1098      C1099   1.394       .  A
C1099      H1105   1.083       .  S
N1100      C1101   1.353       .  A
N1100      H1108   1.045       .  S
C1101      C1102   1.394       .  A
C1102      H1106   1.083       .  S
C1109      C1114   1.384       .  A
C1109      C1110   1.399       .  A
C1109      N1115   1.342       .  A
C1110      C1111   1.398       .  A
C1110      H1121   1.083       .  S
C1111      C1120   1.369   1_565  A
C1111      C1112   1.383       .  A
C1112      C1113   1.411       .  A
C1112      N1118   1.354       .  A
C1113      C1114   1.413       .  A
C1113      H1122   1.082       .  S
C1114      C1117   1.387       .  A
N1115      C1116   1.354       .  A
N1115      H1125   1.045       .  S
C1116      C1117   1.403       .  A
C1117      H1123   1.082       .  S
N1118      C1119   1.360   1_565  A
N1118      H1126   1.045       .  S
C1119      C1120   1.393       .  A
C1120      H1124   1.083       .  S
C1127      C1132   1.385       .  A
C1127      C1128   1.403       .  A
C1127      N1133   1.343       .  A
C1128      C1129   1.402       .  A
C1128      H1139   1.082       .  S
C1129      C1138   1.379       .  A
C1129      C1130   1.385       .  A
C1130      C1131   1.403       .  A
C1130      N1136   1.342       .  A
C1131      C1132   1.402       .  A
C1131      H1140   1.082       .  S
C1132      C1135   1.377       .  A
N1133      C1134   1.356       .  A
N1133      H1143   1.045       .  S
C1134      C1135   1.395       .  A
C1135      H1141   1.083       .  S
N1136      C1137   1.356       .  A
N1136      H1144   1.045       .  S
C1137      C1138   1.395       .  A
C1138      H1142   1.082       .  S
C1145      C1150   1.384       .  A
C1145      C1146   1.404       .  A
C1145      N1151   1.345       .  A
C1146      C1147   1.403   1_556  A
C1146      H1157   1.082       .  S
C1147      C1156   1.378       .  A
C1147      C1148   1.384       .  A
C1148      C1149   1.407       .  A
C1148      N1154   1.347       .  A
C1149      C1150   1.406   1_554  A
C1149      H1158   1.082       .  S
C1150      C1153   1.382       .  A
N1151      C1152   1.355       .  A
N1151      H1161   1.045       .  S
C1152      C1153   1.396       .  A
C1153      H1159   1.082       .  S
N1154      C1155   1.357       .  A
N1154      H1162   1.045       .  S
C1155      C1156   1.395       .  A
C1156      H1160   1.083       .  S
C1163      C1168   1.384       .  A
C1163      C1164   1.404       .  A
C1163      N1169   1.344       .  A
C1164      C1165   1.403       .  A
C1164      H1175   1.082       .  S
C1165      C1174   1.378       .  A
C1165      C1166   1.384       .  A
C1166      C1167   1.407       .  A
C1166      N1172   1.347       .  A
C1167      C1168   1.407       .  A
C1167      H1176   1.082       .  S
C1168      C1171   1.383       .  A
N1169      C1170   1.356       .  A
N1169      H1179   1.045       .  S
C1170      C1171   1.399       .  A
C1171      H1177   1.082       .  S
N1172      C1173   1.357       .  A
N1172      H1180   1.045       .  S
C1173      C1174   1.395       .  A
C1174      H1178   1.083       .  S
C1181      C1186   1.386       .  A
C1181      C1182   1.400       .  A
C1181      N1187   1.343       .  A
C1182      C1183   1.401       .  A
C1182      H1193   1.083       .  S
C1183      C1192   1.372       .  A
C1183      C1184   1.386       .  A
C1184      C1185   1.401       .  A
C1184      N1190   1.345       .  A
C1185      C1186   1.402       .  A
C1185      H1194   1.082       .  S
C1186      C1189   1.374       .  A
N1187      C1188   1.354       .  A
N1187      H1197   1.045       .  S
C1188      C1189   1.394       .  A
C1189      H1195   1.083       .  S
N1190      C1191   1.352       .  A
N1190      H1198   1.044       .  S
C1191      C1192   1.392       .  A
C1192      H1196   1.083       .  S
C1199      C1204   1.385       .  A
C1199      C1200   1.398       .  A
C1199      N1205   1.336       .  A
C1200      C1201   1.396       .  A
C1200      H1211   1.083       .  S
C1201      C1210   1.370       .  A
C1201      C1202   1.385       .  A
C1202      C1203   1.407       .  A
C1202      N1208   1.345   1_554  A
C1203      C1204   1.405       .  A
C1203      H1212   1.082       .  S
C1204      C1207   1.384       .  A
N1205      C1206   1.354       .  A
N1205      H1215   1.045       .  S
C1206      C1207   1.396       .  A
C1207      H1213   1.082       .  S
N1208      C1209   1.356       .  A
N1208      H1216   1.044       .  S
C1209      C1210   1.392   1_556  A
C1210      H1214   1.083       .  S
