geometry optimzed in LAMMPS
_audit_creation_date              2020-12-01 
_audit_creation_method            'lammps2cif' 
_symmetry_space_group_name_H-M    'P1' 
_symmetry_Int_Tables_number       1 
_symmetry_cell_setting            triclinic 
loop_ 
_symmetry_equiv_pos_as_xyz 
  x,y,z 
_cell_length_a                    54.06884569 
_cell_length_b                    54.2706494610245 
_cell_length_c                    43.30330455761644 
_cell_angle_alpha                 89.71791625465364 
_cell_angle_beta                  89.77216847549145 
_cell_angle_gamma                 89.99072535268348 
loop_ 
_atom_site_label 
_atom_site_type_symbol 
_atom_site_fract_x 
_atom_site_fract_y 
_atom_site_fract_z 
_atom_site_charge 
O1          O  0.88817904  0.20996019  0.20675063    -0.82000
C2          C  0.85260584  0.27026413  0.30375598     0.97400
O3          O  0.87479563  0.26426813  0.29872504    -0.71100
O4          O  0.87732715  0.21608714  0.29583616    -0.74700
Al5        Al  0.88919284  0.24167321  0.27011858     1.49000
C6          C  0.87267318  0.19445477  0.28696132     0.92600
O7          O  0.82420615  0.20917688  0.24349343    -0.80900
O8          O  0.84909625  0.26624995  0.19810254    -0.74500
Al9        Al  0.85646655  0.21135046  0.22609115     1.90100
O10         O  0.81375824  0.24787175  0.23687994    -0.73600
O11         O  0.86963318  0.28960038  0.24344125    -0.73400
O12         O  0.83632948  0.26755340  0.28341737    -0.79100
O13         O  0.90349013  0.26762690  0.24644578    -0.77300
O14         O  0.86313768  0.23948373  0.24554686    -1.13400
O15         O  0.90970190  0.21953827  0.24756885    -0.72600
C16         C  0.90844141  0.21006364  0.22113026     0.98100
C17         C  0.80825261  0.22606097  0.24410426     0.94500
Al18       Al  0.84373782  0.26562715  0.24073122     1.55600
O19         O  0.86699365  0.19026130  0.25920262    -0.77200
C20         C  0.89287890  0.28787171  0.24085523     0.98700
C21         C  0.84668803  0.24876341  0.17939011     0.93600
O22         O  0.84494904  0.22673232  0.18881427    -0.82500
O23         O  0.62930130  0.20205756  0.31899716    -0.82000
C24         C  0.65792793  0.26411344  0.21871324     0.97400
O25         O  0.63634595  0.25659472  0.22504225    -0.71100
O26         O  0.63443965  0.20858433  0.23033516    -0.74700
Al27       Al  0.62325924  0.23456970  0.25577596     1.49000
C28         C  0.64145731  0.18758318  0.23930124     0.92600
O29         O  0.69172967  0.20612219  0.27883833    -0.80900
O30         O  0.66285986  0.26158500  0.32474107    -0.74500
Al31       Al  0.65988001  0.20609919  0.29793635     1.90100
O32         O  0.69947989  0.24509207  0.28670769    -0.73600
O33         O  0.64179601  0.28398923  0.27843725    -0.73400
O34         O  0.67497659  0.26267886  0.23857019    -0.79100
O35         O  0.60883257  0.26092465  0.27904787    -0.77300
O36         O  0.65044242  0.23371961  0.27849362    -1.13400
O37         O  0.60445559  0.21266419  0.28129435    -0.72600
C38         C  0.60806820  0.20243065  0.30710742     0.98100
C39         C  0.70686444  0.22367251  0.28051614     0.94500
Al40       Al  0.66842066  0.26098611  0.28192075     1.55600
O41         O  0.64961184  0.18414380  0.26620748    -0.77200
C42         C  0.61886870  0.28170338  0.28273199     0.98700
C43         C  0.66644460  0.24422412  0.34367736     0.93600
O44         O  0.67146114  0.22265560  0.33455673    -0.82500
O45         O  0.88036391  0.29316843  0.05065404    -0.82000
C46         C  0.84421636  0.30060865  0.42919093     0.97400
O47         O  0.83652844  0.28541149  0.44918998    -0.71100
O48         O  0.87290282  0.25942030  0.47170372    -0.74700
Al49       Al  0.84776106  0.27849321  0.49024499     1.49000
C50         C  0.89378575  0.25529832  0.48328923     0.92600
O51         O  0.91356082  0.31282778  0.47800699    -0.80900
O52         O  0.85988621  0.35099053  0.01468959    -0.74500
Al53       Al  0.89645419  0.30280564  0.01383057     1.90100
O54         O  0.89001190  0.34408445  0.46509998    -0.73600
O55         O  0.82219082  0.32954197  0.48464291    -0.73400
O56         O  0.85498829  0.32007948  0.43728592    -0.79100
O57         O  0.82051822  0.29397240  0.50859934    -0.77300
O58         O  0.86664563  0.30526610  0.49344830    -1.13400
O59         O  0.85533738  0.26557537  0.03079688    -0.72600
C60         C  0.86538539  0.27554926  0.05379595     0.98100
C61         C  0.91043057  0.33269298  0.46326544     0.94500
Al62       Al  0.85712231  0.33385153  0.47679780     1.55600
O63         O  0.90280108  0.26987994  0.50287490    -0.77200
C64         C  0.81057037  0.31398253  0.50098145     0.98700
C65         C  0.87892648  0.35201256  0.03145020     0.93600
O66         O  0.89558108  0.33573808  0.02961967    -0.82500
O67         O  0.63806506  0.28956509  0.47406379    -0.82000
C68         C  0.67157452  0.30013044  0.09416167     0.97400
O69         O  0.68171895  0.28577891  0.07489144    -0.71100
O70         O  0.64737768  0.25782938  0.05184098    -0.74700
Al71       Al  0.67184084  0.27772756  0.03325484     1.49000
C72         C  0.62570071  0.25380942  0.04280474     0.92600
O73         O  0.60413707  0.31227082  0.04343181    -0.80900
O74         O  0.66032370  0.34868964  0.00530032    -0.74500
Al75       Al  0.62314946  0.30064193  0.00924695     1.90100
O76         O  0.62756520  0.34391945  0.05324318    -0.73600
O77         O  0.69549538  0.32870986  0.04057664    -0.73400
O78         O  0.66040154  0.31926530  0.08508133    -0.79100
O79         O  0.69885848  0.29427549  0.01489063    -0.77300
O80         O  0.65177130  0.30356893  0.02892587    -1.13400
O81         O  0.66580479  0.26447679  0.49328541    -0.72600
C82         C  0.65381275  0.27276069  0.47049262     0.98100
C83         C  0.60699389  0.33316253  0.05553240     0.94500
Al84       Al  0.66035884  0.33266482  0.04476821     1.55600
O85         O  0.61561447  0.26785226  0.02326678    -0.77200
C86         C  0.70806950  0.31402220  0.02447291     0.98700
C87         C  0.64000281  0.34834654  0.48957486     0.93600
O88         O  0.62325071  0.33221150  0.49235507    -0.82500
O89         O  0.52993403  0.40343306  0.42032447    -0.82000
C90         C  0.53929669  0.43107438  0.29612790     0.97400
O91         O  0.52484665  0.44134048  0.31515283    -0.71100
O92         O  0.49610113  0.40913405  0.34152990    -0.74700
Al93       Al  0.51724811  0.43334026  0.35741785     1.49000
C94         C  0.49090251  0.38896283  0.35421066     0.92600
O95         O  0.54795762  0.36419291  0.35148899    -0.80900
O96         O  0.58918441  0.41885335  0.38369064    -0.74500
Al97       Al  0.53887259  0.38535378  0.38491922     1.90100
O98         O  0.58042692  0.38553144  0.33714460    -0.73600
O99         O  0.57019069  0.45444996  0.34898333    -0.73400
O100        O  0.55822665  0.41975806  0.30539263    -0.79100
O101        O  0.53482097  0.46026562  0.37273477    -0.77300
O102        O  0.54266945  0.41265708  0.36251401    -1.13400
O103        O  0.50415483  0.42948941  0.39844552    -0.72600
C104        C  0.51311431  0.41942659  0.42224730     0.98100
C105        C  0.56830236  0.36558006  0.33708844     0.94500
Al106      Al  0.57200108  0.41922072  0.34521907     1.55600
O107        O  0.50500551  0.37955774  0.37419598    -0.77200
C108        C  0.55531740  0.46817204  0.36334066     0.98700
C109        C  0.58902028  0.40047294  0.40162490     0.93600
O110        O  0.57166649  0.38493330  0.40094496    -0.82500
O111        O  0.52808220  0.63929996  0.35281532    -0.82000
C112        C  0.53788640  0.60093980  0.47161069     0.97400
O113        O  0.52330692  0.59247189  0.45156407    -0.71100
O114        O  0.49524554  0.62797186  0.43040126    -0.74700
Al115      Al  0.51562296  0.60425192  0.41098404     1.49000
C116        C  0.49178632  0.64981241  0.42152894     0.92600
O117        O  0.55079337  0.67074280  0.42484102    -0.80900
O118        O  0.58771707  0.61674497  0.38477285    -0.74500
Al119      Al  0.53946985  0.65324522  0.38974645     1.90100
O120        O  0.58223902  0.64685136  0.43512194    -0.73600
O121        O  0.56725795  0.57984979  0.41586260    -0.73400
O122        O  0.55744419  0.61194672  0.46353846    -0.79100
O123        O  0.53211150  0.57829465  0.39133402    -0.77300
O124        O  0.54197422  0.62406835  0.40810915    -1.13400
O125        O  0.50232631  0.61184417  0.37131588    -0.72600
C126        C  0.51084227  0.62400759  0.34884630     0.98100
C127        C  0.57153797  0.66747702  0.43737018     0.94500
Al128      Al  0.57111714  0.61451235  0.42364879     1.55600
O129        O  0.50680770  0.66031621  0.40350227    -0.77200
C130        C  0.55237250  0.56859981  0.39858201     0.98700
C131        C  0.58794866  0.63609836  0.36849745     0.93600
O132        O  0.57163760  0.65254745  0.37169807    -0.82500
O133        O  0.44424050  0.39009451  0.07241781    -0.82000
C134        C  0.50395085  0.42300803  0.17175733     0.97400
O135        O  0.49726755  0.40115186  0.16625934    -0.71100
O136        O  0.44902708  0.39903649  0.16168939    -0.74700
Al137      Al  0.47513589  0.38732456  0.13676089     1.49000
C138        C  0.42757252  0.40403323  0.15214273     0.92600
O139        O  0.44464646  0.45343957  0.11048388    -0.80900
O140        O  0.50192627  0.42615052  0.06612923    -0.74500
Al141      Al  0.44616597  0.42136683  0.09237873     1.90100
O142        O  0.48358539  0.46261357  0.10284507    -0.73600
O143        O  0.52421337  0.40622235  0.11279810    -0.73400
O144        O  0.50177007  0.43968599  0.15152191    -0.79100
O145        O  0.50157244  0.37289496  0.11382752    -0.77300
O146        O  0.47385812  0.41363991  0.11257144    -1.13400
O147        O  0.45331278  0.36769169  0.11294129    -0.72600
C148        C  0.44427314  0.36955789  0.08622188     0.98100
C149        C  0.46186275  0.46910978  0.10957645     0.94500
Al150      Al  0.50062266  0.43230615  0.10853123     1.55600
O151        O  0.42398559  0.41068377  0.12452083    -0.77200
C152        C  0.52214343  0.38323807  0.10903544     0.98700
C153        C  0.48470982  0.42851125  0.04685041     0.93600
O154        O  0.46277853  0.43300418  0.05548613    -0.82500
O155        O  0.44470820  0.64621813  0.19510982    -0.82000
C156        C  0.50543079  0.61097501  0.09808798     0.97400
O157        O  0.49996542  0.63329253  0.10280354    -0.71100
O158        O  0.45217435  0.63730072  0.10625577    -0.74700
Al159      Al  0.47771754  0.64817981  0.13190333     1.49000
C160        C  0.43028963  0.63270038  0.11449857     0.92600
O161        O  0.44452852  0.58339142  0.15669322    -0.80900
O162        O  0.50095626  0.60913142  0.20387881    -0.74500
Al163      Al  0.44631644  0.61511332  0.17519059     1.90100
O164        O  0.48281538  0.57271008  0.16621072    -0.73600
O165        O  0.52566988  0.62813184  0.15812233    -0.73400
O166        O  0.50341963  0.59502220  0.11914563    -0.79100
O167        O  0.50386661  0.66188103  0.15537284    -0.77300
O168        O  0.47494168  0.62204139  0.15618959    -1.13400
O169        O  0.45584581  0.66861575  0.15522196    -0.72600
C170        C  0.44586431  0.66680546  0.18156765     0.98100
C171        C  0.46147214  0.56747875  0.15655614     0.94500
Al172      Al  0.50106734  0.60266821  0.16158955     1.55600
O173        O  0.42539839  0.62642981  0.14202085    -0.77200
C174        C  0.52410673  0.65122086  0.16089794     0.98700
C175        C  0.48299960  0.60766216  0.22238319     0.93600
O176        O  0.46139267  0.60302749  0.21280183    -0.82500
O177        O  0.38567975  0.70249225  0.45055790    -0.82000
C178        C  0.35670924  0.75989987  0.04943007     0.97400
O179        O  0.37840090  0.75329601  0.04250238    -0.71100
O180        O  0.38158614  0.70523984  0.03663413    -0.74700
Al181      Al  0.39111292  0.73200934  0.01105211     1.49000
C182        C  0.37603320  0.68394047  0.02745307     0.92600
O183        O  0.32311648  0.70105927  0.49088062    -0.80900
O184        O  0.34376422  0.75807526  0.44266995    -0.74500
Al185      Al  0.35472409  0.70389132  0.47165208     1.90100
O186        O  0.31122647  0.73942365  0.48531654    -0.73600
O187        O  0.36638518  0.78288560  0.48525047    -0.73400
O188        O  0.33938694  0.75848211  0.03012233    -0.79100
O189        O  0.40078814  0.76163697  0.48705652    -0.77300
O190        O  0.36137421  0.73259679  0.48993441    -1.13400
O191        O  0.40870608  0.71410960  0.48922382    -0.72600
C192        C  0.40651251  0.70377309  0.46344481     0.98100
C193        C  0.30651577  0.71727042  0.49182559     0.94500
Al194      Al  0.34094299  0.75819366  0.48589381     1.55600
O195        O  0.36732006  0.68058264  0.00077812    -0.77200
C196        C  0.38952460  0.78150165  0.48133131     0.98700
C197        C  0.34204882  0.74022213  0.42435683     0.93600
O198        O  0.34171310  0.71826462  0.43432548    -0.82500
O199        O  0.12614966  0.71098769  0.06340548    -0.82000
C200        C  0.16422181  0.76452105  0.46412824     0.97400
O201        O  0.14171219  0.75951710  0.46879860    -0.71100
O202        O  0.13585723  0.71169959  0.47509157    -0.74700
Al203      Al  0.12654669  0.74186324  0.99894858     1.49000
C204        C  0.13908106  0.69033942  0.48602380     0.92600
O205        O  0.19013234  0.70752436  0.02706626    -0.80900
O206        O  0.16476771  0.76591695  0.07085913    -0.74500
Al207      Al  0.15775879  0.71094501  0.04438234     1.90100
O208        O  0.20161015  0.74552613  0.03586302    -0.73600
O209        O  0.14765851  0.78998981  0.02356716    -0.73400
O210        O  0.18006741  0.76217147  0.48511205    -0.79100
O211        O  0.11334736  0.76902017  0.02089472    -0.77300
O212        O  0.15216774  0.73899136  0.02397131    -1.13400
O213        O  0.10464122  0.72169704  0.02286623    -0.72600
C214        C  0.10573711  0.71219332  0.04944096     0.98100
C215        C  0.20693842  0.72350773  0.02927306     0.94500
Al216      Al  0.17231075  0.76454656  0.02894744     1.55600
O217        O  0.14623512  0.68949623  0.01238818    -0.77200
C218        C  0.12436902  0.78897894  0.02620109     0.98700
C219        C  0.16574396  0.74857757  0.09019080     0.93600
O220        O  0.16954328  0.72662887  0.08152264    -0.82500
O221        O  0.37623414  0.78787149  0.29827890    -0.82000
C222        C  0.34842238  0.79574061  0.17377102     0.97400
O223        O  0.33882439  0.78138355  0.19347166    -0.71100
O224        O  0.37443357  0.75570815  0.21775797    -0.74700
Al225      Al  0.34812023  0.77393032  0.23503461     1.49000
C226        C  0.39520011  0.75187939  0.22989206     0.92600
O227        O  0.41521044  0.80929852  0.23029739    -0.80900
O228        O  0.35733857  0.84650975  0.26042711    -0.74500
Al229      Al  0.39416304  0.79842780  0.26306955     1.90100
O230        O  0.39186302  0.83973944  0.21440899    -0.73600
O231        O  0.32322368  0.82450525  0.22623015    -0.73400
O232        O  0.35947974  0.81490707  0.18244713    -0.79100
O233        O  0.31968334  0.78944020  0.25143244    -0.77300
O234        O  0.36692341  0.80052241  0.24026465    -1.13400
O235        O  0.35315559  0.76016791  0.27556177    -0.72600
C236        C  0.36171283  0.76978411  0.29973539     0.98100
C237        C  0.41273168  0.82920101  0.21539959     0.94500
Al238      Al  0.35857694  0.82901861  0.22233081     1.55600
O239        O  0.40282256  0.76519568  0.25170221    -0.77200
C240        C  0.31038378  0.80921752  0.24151852     0.98700
C241        C  0.37487133  0.84700138  0.27954795     0.93600
O242        O  0.39155838  0.83073460  0.27945305    -0.82500
O243        O  0.13460360  0.79160333  0.22251097    -0.82000
C244        C  0.17387209  0.79873777  0.34084031     0.97400
O245        O  0.18088820  0.78321983  0.32090345    -0.71100
O246        O  0.14386185  0.75720592  0.30045835    -0.74700
Al247      Al  0.16863842  0.77609337  0.28036510     1.49000
C248        C  0.12237811  0.75350565  0.29050617     0.92600
O249        O  0.10332165  0.81142946  0.29605287    -0.80900
O250        O  0.15804143  0.84816413  0.25447154    -0.74500
Al251      Al  0.12038397  0.80132197  0.25985218     1.90100
O252        O  0.12759150  0.84274269  0.30579033    -0.73600
O253        O  0.19498868  0.82651543  0.28484391    -0.73400
O254        O  0.16292853  0.81814722  0.33277909    -0.79100
O255        O  0.19576083  0.79127875  0.26057003    -0.77300
O256        O  0.14978418  0.80291452  0.27785401    -1.13400
O257        O  0.16023212  0.76365215  0.24023617    -0.72600
C258        C  0.14930415  0.77395357  0.21788494     0.98100
C259        C  0.10684060  0.83204492  0.30875757     0.94500
Al260      Al  0.16016539  0.83150351  0.29322837     1.55600
O261        O  0.11279433  0.76793015  0.27109742    -0.77200
C262        C  0.20640861  0.81071291  0.26884955     0.98700
C263        C  0.13776172  0.85001336  0.24039299     0.93600
O264        O  0.12090168  0.83415970  0.24403220    -0.82500
O265        O  0.07526338  0.38917556  0.44313996    -0.82000
C266        C  0.01189190  0.42411231  0.34858343     0.97400
O267        O  0.01824286  0.40188281  0.35293254    -0.71100
O268        O  0.06647632  0.39885144  0.35447686    -0.74700
Al269      Al  0.04139305  0.38696581  0.38092658     1.49000
C270        C  0.08829086  0.40347397  0.36272004     0.92600
O271        O  0.07181473  0.45323755  0.40496437    -0.80900
O272        O  0.01750240  0.42288634  0.45405782    -0.74500
Al273      Al  0.07200612  0.42072868  0.42354146     1.90100
O274        O  0.03382820  0.46082923  0.41891046    -0.73600
O275        O  0.99305102  0.40514651  0.40764803    -0.73400
O276        O  0.01432539  0.43994993  0.36964701    -0.79100
O277        O  0.01596734  0.37210077  0.40522609    -0.77300
O278        O  0.04358940  0.41272336  0.40547178    -1.13400
O279        O  0.06411914  0.36689838  0.40336933    -0.72600
C280        C  0.07435877  0.36866392  0.42943155     0.98100
C281        C  0.05405512  0.46824577  0.40777229     0.94500
Al282      Al  0.01687706  0.43086650  0.41210368     1.55600
O283        O  0.09289209  0.41038154  0.38994598    -0.77200
C284        C  0.99546435  0.38217817  0.41094757     0.98700
C285        C  0.03536812  0.42645230  0.47210228     0.93600
O286        O  0.05675118  0.43177780  0.46184279    -0.82500
O287        O  0.07219981  0.64796206  0.32563672    -0.82000
C288        C  0.00931391  0.61262189  0.42060196     0.97400
O289        O  0.01659326  0.63458252  0.41729116    -0.71100
O290        O  0.06469631  0.63614872  0.41422452    -0.74700
Al291      Al  0.03949547  0.64939506  0.38921240     1.49000
C292        C  0.08639891  0.63205900  0.40491893     0.92600
O293        O  0.06845317  0.58357440  0.36233327    -0.80900
O294        O  0.01421001  0.61511132  0.31469468    -0.74500
Al295      Al  0.06883274  0.61612202  0.34441939     1.90100
O296        O  0.03008619  0.57621779  0.34994418    -0.73600
O297        O  0.99041275  0.63326608  0.36205545    -0.73400
O298        O  0.01068120  0.59734392  0.39885062    -0.79100
O299        O  0.01401443  0.66563840  0.36703169    -0.77300
O300        O  0.04068137  0.62425612  0.36347171    -1.13400
O301        O  0.06210052  0.66936002  0.36660994    -0.72600
C302        C  0.07188966  0.66817560  0.34017405     0.98100
C303        C  0.05042711  0.56880454  0.36070056     0.94500
Al304      Al  0.01354728  0.60681073  0.35678125     1.55600
O305        O  0.09038572  0.62573038  0.37734722    -0.77200
C306        C  0.99311779  0.65637664  0.36175847     0.98700
C307        C  0.03198718  0.61129812  0.29642128     0.93600
O308        O  0.05322598  0.60554754  0.30642994    -0.82500
O309        O  0.98684261  0.39981338  0.10306155    -0.82000
C310        C  0.97879164  0.43536527  0.22349594     0.97400
O311        O  0.99471082  0.44314235  0.20417632    -0.71100
O312        O  0.02080680  0.40773419  0.18015582    -0.74700
Al313      Al  0.00163910  0.43305449  0.16221866     1.49000
C314        C  0.02357725  0.38617107  0.17041995     0.92600
O315        O  0.96431231  0.36848668  0.17539577    -0.80900
O316        O  0.92935680  0.42452683  0.13512536    -0.74500
Al317      Al  0.97564892  0.38575164  0.13996362     1.90100
O318        O  0.93320833  0.39298605  0.18526040    -0.73600
O319        O  0.95068591  0.45984930  0.16753005    -0.73400
O320        O  0.95858600  0.42640740  0.21446821    -0.79100
O321        O  0.98666950  0.46086642  0.14458742    -0.77300
O322        O  0.97440169  0.41473854  0.15882328    -1.13400
O323        O  0.01391126  0.42614076  0.12098831    -0.72600
C324        C  0.00481975  0.41413393  0.09869178     0.98100
C325        C  0.94364689  0.37225362  0.18812040     0.94500
Al326      Al  0.94550671  0.42520499  0.17437886     1.55600
O327        O  0.00838193  0.37685939  0.15196355    -0.77200
C328        C  0.96646749  0.47098766  0.15117653     0.98700
C329        C  0.92812496  0.40517740  0.11916931     0.93600
O330        O  0.94334697  0.38779595  0.12294286    -0.82500
O331        O  0.99980769  0.64593084  0.16018882    -0.82000
C332        C  0.98091207  0.60770647  0.04654179     0.97400
O333        O  0.99950534  0.61246906  0.06304174    -0.71100
O334        O  0.02453638  0.63691343  0.10510773    -0.74700
Al335      Al  0.00106921  0.61046510  0.10635985     1.49000
C336        C  0.02181782  0.65959271  0.09974175     0.92600
O337        O  0.95343176  0.67504071  0.10526910    -0.80900
O338        O  0.92506105  0.63055289  0.12941314    -0.74500
Al339      Al  0.97632748  0.65743867  0.13041194     1.90100
O340        O  0.93930166  0.64812884  0.07230042    -0.73600
O341        O  0.94639635  0.58802652  0.11727434    -0.73400
O342        O  0.95941278  0.60566141  0.05819568    -0.79100
O343        O  0.98492322  0.57960373  0.10628892    -0.77300
O344        O  0.97395162  0.62901231  0.11065039    -1.13400
O345        O  0.00466836  0.60672571  0.14972643    -0.72600
C346        C  0.00618409  0.62443273  0.16841729     0.98100
C347        C  0.94175188  0.67012204  0.08092680     0.94500
Al348      Al  0.94498477  0.61882181  0.09558940     1.55600
O349        O  0.00108666  0.66965746  0.10348198    -0.77200
C350        C  0.96393941  0.57283384  0.11551711     0.98700
C351        C  0.93068070  0.64034224  0.15483998     0.93600
O352        O  0.95204922  0.64866294  0.15945094    -0.82500
O353        O  0.57319445  0.14843099  0.07685995    -0.82000
C354        C  0.51275863  0.11622615  0.17646639     0.97400
O355        O  0.51938040  0.13800861  0.17015820    -0.71100
O356        O  0.56711667  0.13932553  0.16581082    -0.74700
Al357      Al  0.54165105  0.15149428  0.14072742     1.49000
C358        C  0.58847980  0.13341911  0.15680147     0.92600
O359        O  0.57108024  0.08428768  0.11390587    -0.80900
O360        O  0.51425676  0.11306305  0.07129431    -0.74500
Al361      Al  0.57024139  0.11697551  0.09667286     1.90100
O362        O  0.53177450  0.07657929  0.10793549    -0.73600
O363        O  0.49210333  0.13357670  0.11776181    -0.73400
O364        O  0.51423181  0.09958024  0.15634149    -0.79100
O365        O  0.51558067  0.16637132  0.11766998    -0.77300
O366        O  0.54259301  0.12514557  0.11693794    -1.13400
O367        O  0.56411917  0.17087261  0.11715537    -0.72600
C368        C  0.57357580  0.16881570  0.09068531     0.98100
C369        C  0.55344033  0.06909827  0.11287901     0.94500
Al370      Al  0.51540397  0.10701373  0.11346521     1.55600
O371        O  0.59240771  0.12663592  0.12927849    -0.77200
C372        C  0.49457907  0.15657745  0.11428822     0.98700
C373        C  0.53132342  0.11090067  0.05167737     0.93600
O374        O  0.55337498  0.10654148  0.05984949    -0.82500
O375        O  0.57398817  0.88940678  0.19184431    -0.82000
C376        C  0.51282623  0.92118820  0.09337723     0.97400
O377        O  0.51857877  0.89911025  0.09946251    -0.71100
O378        O  0.56680496  0.89701126  0.10260737    -0.74700
Al379      Al  0.54145596  0.88564674  0.12887995     1.49000
C380        C  0.58850633  0.90206432  0.11105358     0.92600
O381        O  0.57237889  0.95238631  0.15196783    -0.80900
O382        O  0.51617876  0.92511034  0.19868747    -0.74500
Al383      Al  0.57141358  0.92043497  0.17100318     1.90100
O384        O  0.53346351  0.96120683  0.16062411    -0.73600
O385        O  0.49255538  0.90440880  0.15377802    -0.73400
O386        O  0.51477072  0.93779540  0.11344556    -0.79100
O387        O  0.51582496  0.87147703  0.15358927    -0.77300
O388        O  0.54326398  0.91228390  0.15207689    -1.13400
O389        O  0.56402141  0.86641414  0.15240086    -0.72600
C390        C  0.57378937  0.86873119  0.17862155     0.98100
C391        C  0.55479689  0.96766936  0.15201134     0.94500
Al392      Al  0.51645865  0.93079862  0.15640009     1.55600
O393        O  0.59280330  0.90935239  0.13822058    -0.77200
C394        C  0.49514580  0.88152463  0.15847235     0.98700
C395        C  0.53373964  0.92780345  0.21735687     0.93600
O396        O  0.55549524  0.93242599  0.20804530    -0.82500
O397        O  0.48341644  0.13775581  0.42162436    -0.82000
C398        C  0.47833582  0.10394587  0.30107574     0.97400
O399        O  0.49263702  0.09436386  0.32082892    -0.71100
O400        O  0.51934563  0.12965899  0.34482735    -0.74700
Al401      Al  0.49908453  0.10485990  0.36250578     1.49000
C402        C  0.52261834  0.15115508  0.35482093     0.92600
O403        O  0.46461373  0.17033347  0.34875764    -0.80900
O404        O  0.42648971  0.11527628  0.38667444    -0.74500
Al405      Al  0.47402462  0.15270584  0.38440181     1.90100
O406        O  0.43260027  0.14749928  0.33762131    -0.73600
O407        O  0.44833730  0.07988972  0.35376620    -0.73400
O408        O  0.45842244  0.11423872  0.30890090    -0.79100
O409        O  0.48260509  0.07761018  0.38034201    -0.77300
O410        O  0.47241938  0.12406080  0.36511489    -1.13400
O411        O  0.51087627  0.11171053  0.40316050    -0.72600
C412        C  0.50084169  0.12271251  0.42555903     0.98100
C413        C  0.44438006  0.16751001  0.33485358     0.94500
Al414      Al  0.44383698  0.11478785  0.34810118     1.55600
O415        O  0.50746005  0.16054686  0.37351839    -0.77200
C416        C  0.46317084  0.06783177  0.37039741     0.98700
C417        C  0.42535359  0.13449783  0.40297389     0.93600
O418        O  0.44105191  0.15158644  0.39997346    -0.82500
O419        O  0.48651275  0.89441986  0.34664106    -0.82000
C420        C  0.47821326  0.92927334  0.46711398     0.97400
O421        O  0.49309455  0.93800564  0.44714318    -0.71100
O422        O  0.52042404  0.90304804  0.42367848    -0.74700
Al423      Al  0.50039663  0.92767630  0.40556324     1.49000
C424        C  0.52365240  0.88144372  0.41412503     0.89400
O425        O  0.46485438  0.86168106  0.41821172    -0.80900
O426        O  0.42836665  0.91761010  0.38045659    -0.74500
Al427      Al  0.47570325  0.87974324  0.38332889     1.90100
O428        O  0.43326549  0.88520483  0.42892616    -0.73600
O429        O  0.44977599  0.95271549  0.41405367    -0.73400
O430        O  0.45883577  0.91828950  0.45884600    -0.79100
O431        O  0.48412452  0.95486221  0.38735161    -0.77300
O432        O  0.47384122  0.90839299  0.40263665    -1.13400
O433        O  0.51314330  0.92086654  0.36503158    -0.72600
C434        C  0.50436861  0.90892140  0.34263118     0.98100
C435        C  0.44393978  0.86450879  0.43051800     0.94500
Al436      Al  0.44503905  0.91780476  0.41923865     1.55600
O437        O  0.50861421  0.87169139  0.39570782    -0.77200
C438        C  0.46471882  0.96474162  0.39741136     0.98700
C439        C  0.42713749  0.89832276  0.36432656     0.93600
O440        O  0.44318968  0.88147856  0.36658979    -0.82500
O441        O  0.89052435  0.83315654  0.06579177    -0.82000
C442        C  0.84975160  0.78006024  0.46680816     0.97400
O443        O  0.87210369  0.78538690  0.47160903    -0.71100
O444        O  0.87653094  0.83326407  0.47818570    -0.74700
Al445      Al  0.89177000  0.80365951  0.00052121     1.49000
C446        C  0.87320073  0.85453823  0.48916868     0.92600
O447        O  0.82527828  0.83232894  0.03171910    -0.80900
O448        O  0.85595882  0.77409376  0.07130454    -0.74500
Al449      Al  0.85851080  0.83088197  0.04774690     1.90100
O450        O  0.81772030  0.79336141  0.03925806    -0.73600
O451        O  0.87310306  0.75370564  0.02126690    -0.73400
O452        O  0.83375093  0.78217755  0.48779149    -0.79100
O453        O  0.90652728  0.77609139  0.02116617    -0.77300
O454        O  0.86607253  0.80417248  0.02592313    -1.13400
O455        O  0.91248899  0.82390700  0.02497582    -0.72600
C456        C  0.91098882  0.83298533  0.05159529     0.98100
C457        C  0.81004685  0.81475431  0.03361102     0.94500
Al458      Al  0.84763077  0.77724977  0.02965043     1.55600
O459        O  0.86765551  0.85411295  0.01618938    -0.77200
C460        C  0.89616359  0.75545090  0.02479120     0.98700
C461        C  0.85340640  0.79026026  0.09182818     0.93600
O462        O  0.84889382  0.81252317  0.08447187    -0.82500
O463        O  0.62905512  0.82968277  0.44839390    -0.82000
C464        C  0.66193465  0.77076060  0.04892955     0.97400
O465        O  0.64002767  0.77685484  0.04233396    -0.71100
O466        O  0.63570664  0.82461646  0.03644939    -0.74700
Al467      Al  0.62666190  0.79796427  0.01098716     1.49000
C468        C  0.64093833  0.84601207  0.02719449     0.92600
O469        O  0.69036428  0.83353087  0.49037542    -0.80900
O470        O  0.66934415  0.77475467  0.44490351    -0.74500
Al471      Al  0.65944501  0.82966017  0.47027588     1.90100
O472        O  0.70319274  0.79545833  0.48523254    -0.73600
O473        O  0.64838241  0.75079802  0.48974574    -0.73400
O474        O  0.67905620  0.77229685  0.02915853    -0.79100
O475        O  0.61369668  0.77147833  0.48996326    -0.77300
O476        O  0.65274720  0.80155359  0.49041208    -1.13400
O477        O  0.60522082  0.81907057  0.48726965    -0.72600
C478        C  0.60789997  0.82842252  0.46071412     0.98100
C479        C  0.70734700  0.81774206  0.49177708     0.94500
Al480      Al  0.67340717  0.77610784  0.48781710     1.55600
O481        O  0.64598714  0.85086241  0.50115005    -0.77200
C482        C  0.62521034  0.75151197  0.48594653     0.98700
C483        C  0.67086836  0.79210679  0.42563658     0.93600
O484        O  0.67381298  0.81410911  0.43437740    -0.82500
O485        O  0.88372212  0.74814827  0.22664057    -0.82000
C486        C  0.84114702  0.74275727  0.34437853     0.97400
O487        O  0.83403357  0.75758512  0.32352815    -0.71100
O488        O  0.86992992  0.78442919  0.30118476    -0.74700
Al489      Al  0.84654223  0.76343976  0.28237481     1.49000
C490        C  0.89209472  0.78761844  0.29335652     0.92600
O491        O  0.91220299  0.72998366  0.30278907    -0.80900
O492        O  0.86044492  0.69087707  0.26103852    -0.74500
Al493      Al  0.89644277  0.73909302  0.26549153     1.90100
O494        O  0.88830795  0.69853788  0.31317053    -0.73600
O495        O  0.82200948  0.71190645  0.28877483    -0.73400
O496        O  0.85190632  0.72300605  0.33735653    -0.79100
O497        O  0.82040041  0.74660622  0.26315730    -0.77300
O498        O  0.86639364  0.73713421  0.28216330    -1.13400
O499        O  0.85525710  0.77434874  0.24165348    -0.72600
C500        C  0.86801705  0.76462918  0.22045408     0.98100
C501        C  0.90860580  0.70970330  0.31643659     0.94500
Al502      Al  0.85634713  0.70856463  0.29872717     1.55600
O503        O  0.90299846  0.77237677  0.27629382    -0.77200
C504        C  0.81064163  0.72663238  0.27131007     0.98700
C505        C  0.88103019  0.68970489  0.24726846     0.93600
O506        O  0.89722012  0.70615597  0.25076694    -0.82500
O507        O  0.63857717  0.74655041  0.29622975    -0.82000
C508        C  0.67138868  0.73731002  0.17450802     0.97400
O509        O  0.68035215  0.75242486  0.19362626    -0.71100
O510        O  0.64553659  0.77927997  0.21702833    -0.74700
Al511      Al  0.67062017  0.76003176  0.23527392     1.49000
C512        C  0.62433058  0.78349182  0.22767732     0.92600
O513        O  0.60357881  0.72624753  0.22569349    -0.80900
O514        O  0.65897250  0.68839635  0.26327618    -0.74500
Al515      Al  0.62257245  0.73652884  0.26022607     1.90100
O516        O  0.62689892  0.69448392  0.21459604    -0.73600
O517        O  0.69499125  0.70867535  0.22951110    -0.73400
O518        O  0.66096025  0.71790963  0.18385873    -0.79100
O519        O  0.69824732  0.74430055  0.25265953    -0.77300
O520        O  0.65111608  0.73381541  0.23994334    -1.13400
O521        O  0.66483563  0.77297342  0.27607395    -0.72600
C522        C  0.65410662  0.76365984  0.29937701     0.98100
C523        C  0.60642159  0.70569118  0.21263061     0.94500
Al524      Al  0.65987778  0.70479857  0.22410526     1.55600
O525        O  0.61523408  0.76991705  0.24847121    -0.77200
C526        C  0.70756870  0.72428213  0.24415840     0.98700
C527        C  0.63973662  0.68783175  0.27990028     0.93600
O528        O  0.62311614  0.70402888  0.27718087    -0.82500
O529        O  0.38829168  0.33254079  0.31759977    -0.82000
C530        C  0.36229342  0.27408828  0.21511245     0.97400
O531        O  0.38408951  0.27991591  0.22239081    -0.71100
O532        O  0.38570838  0.32781413  0.22873042    -0.74700
Al533      Al  0.39583888  0.30127857  0.25400746     1.49000
C534        C  0.37799577  0.34859438  0.23754102     0.92600
O535        O  0.32632849  0.32955043  0.27493875    -0.80900
O536        O  0.35312247  0.27236729  0.31875429    -0.74500
Al537      Al  0.35796227  0.32892277  0.29539908     1.90100
O538        O  0.31842906  0.29050986  0.28071496    -0.73600
O539        O  0.37594453  0.25149404  0.27350272    -0.73400
O540        O  0.34469767  0.27556877  0.23403912    -0.79100
O541        O  0.40892023  0.27437819  0.27757513    -0.77300
O542        O  0.36789241  0.30189912  0.27548087    -1.13400
O543        O  0.41357504  0.32258639  0.28020439    -0.72600
C544        C  0.40977692  0.33236870  0.30600258     0.98100
C545        C  0.31154640  0.31167900  0.27279594     0.94500
Al546      Al  0.34950869  0.27484160  0.27671499     1.55600
O547        O  0.36898010  0.35161389  0.26421718    -0.77200
C548        C  0.39853158  0.25360628  0.28009250     0.98700
C549        C  0.34919607  0.28853175  0.33877683     0.93600
O550        O  0.34572637  0.31089631  0.33107320    -0.82500
O551        O  0.12871037  0.33332486  0.20240483    -0.82000
C552        C  0.16199934  0.27047247  0.29888223     0.97400
O553        O  0.14013025  0.27747430  0.29400529    -0.71100
O554        O  0.13954173  0.32584547  0.29133645    -0.74700
Al555      Al  0.12672663  0.30083826  0.26562608     1.49000
C556        C  0.14440263  0.34737146  0.28195118     0.92600
O557        O  0.19357994  0.33086695  0.23772710    -0.80900
O558        O  0.16534193  0.27506634  0.19309522    -0.74500
Al559      Al  0.16064027  0.33017029  0.22106488     1.90100
O560        O  0.20137566  0.29178084  0.23086953    -0.73600
O561        O  0.14421486  0.25221320  0.23885621    -0.73400
O562        O  0.17842980  0.27277732  0.27838312    -0.79100
O563        O  0.11141828  0.27579374  0.24190684    -0.77300
O564        O  0.15277962  0.30219654  0.24070806    -1.13400
O565        O  0.10713839  0.32374164  0.24342742    -0.72600
C566        C  0.10842250  0.33341423  0.21703224     0.98100
C567        C  0.20879277  0.31324784  0.23673110     0.94500
Al568      Al  0.17093544  0.27526395  0.23565443     1.55600
O569        O  0.15097525  0.35138437  0.25431292    -0.77200
C570        C  0.12119458  0.25526552  0.23580416     0.98700
C571        C  0.16867295  0.29237211  0.17408096     0.93600
O572        O  0.17113677  0.31438185  0.18325142    -0.82500
O573        O  0.38019703  0.24714626  0.47096253    -0.82000
C574        C  0.34647859  0.23955029  0.09290164     0.97400
O575        O  0.33746609  0.25393376  0.07298792    -0.71100
O576        O  0.37324075  0.27977207  0.04993292    -0.74700
Al577      Al  0.34807181  0.26052205  0.03183048     1.49000
C578        C  0.39433572  0.28383202  0.03877400     0.92600
O579        O  0.41429934  0.22762088  0.04484564    -0.80900
O580        O  0.35993896  0.18806876  0.00796400    -0.74500
Al581      Al  0.39610566  0.23617960  0.00910983     1.90100
O582        O  0.39151054  0.19566674  0.05741315    -0.73600
O583        O  0.32322236  0.20933841  0.03919417    -0.73400
O584        O  0.35660382  0.21967862  0.08503266    -0.79100
O585        O  0.32034805  0.24469594  0.01472811    -0.77300
O586        O  0.36732948  0.23404145  0.02885085    -1.13400
O587        O  0.35274595  0.27352441  0.48824603    -0.72600
C588        C  0.36413010  0.26350355  0.46618771     0.98100
C589        C  0.41168343  0.20754358  0.05930096     0.94500
Al590      Al  0.35834404  0.20549408  0.04600621     1.55600
O591        O  0.40314255  0.27003650  0.01822472    -0.77200
C592        C  0.31072064  0.22495419  0.02414676     0.98700
C593        C  0.37908699  0.18899788  0.49170667     0.93600
O594        O  0.39556487  0.20544069  0.49317492    -0.82500
O595        O  0.13747085  0.24694938  0.04538978    -0.82000
C596        C  0.17338576  0.23749723  0.42370934     0.97400
O597        O  0.18219408  0.25230423  0.44324398    -0.71100
O598        O  0.14599134  0.27842176  0.46552414    -0.74700
Al599      Al  0.17124424  0.25975726  0.48455620     1.49000
C600        C  0.12504911  0.28283286  0.47695801     0.92600
O601        O  0.10502894  0.22659561  0.47481466    -0.80900
O602        O  0.15860241  0.18968043  0.01230502    -0.74500
Al603      Al  0.12193463  0.23736863  0.00860911     1.90100
O604        O  0.12772061  0.19473784  0.46197199    -0.73600
O605        O  0.19599820  0.20860295  0.47853890    -0.73400
O606        O  0.16231911  0.21829066  0.43247578    -0.79100
O607        O  0.19842914  0.24390826  0.50284656    -0.77300
O608        O  0.15208670  0.23337391  0.48883200    -1.13400
O609        O  0.16217004  0.27488186  0.02493779    -0.72600
C610        C  0.15214102  0.26480841  0.04825081     0.98100
C611        C  0.10753150  0.20657523  0.46048741     0.94500
Al612      Al  0.16088291  0.20462511  0.47224771     1.55600
O613        O  0.11660871  0.26963144  0.49863121    -0.77200
C614        C  0.20802737  0.22387036  0.49453996     0.98700
C615        C  0.13905387  0.18881293  0.02819679     0.93600
O616        O  0.12216591  0.20464401  0.02484554    -0.82500
O617        O  0.94539832  0.14919721  0.44898678    -0.82000
C618        C  0.00026322  0.12175563  0.34298077     0.97400
O619        O  0.99432134  0.14344718  0.35044912    -0.71100
O620        O  0.94688048  0.14708148  0.35991822    -0.74700
Al621      Al  0.97464490  0.15615757  0.38340110     1.49000
C622        C  0.92613524  0.14024562  0.37014889     0.92600
O623        O  0.94557630  0.08776840  0.40604023    -0.80900
O624        O  0.00480319  0.11346546  0.44726727    -0.74500
Al625      Al  0.94746905  0.11908646  0.42647237     1.90100
O626        O  0.98477407  0.07888157  0.41027016    -0.73600
O627        O  0.02485646  0.13528571  0.39994282    -0.73400
O628        O  0.99923591  0.10427372  0.36216697    -0.79100
O629        O  0.00260371  0.16847699  0.40486490    -0.77300
O630        O  0.97416308  0.12834637  0.40498814    -1.13400
O631        O  0.95506882  0.17467954  0.41140336    -0.72600
C632        C  0.94626867  0.17075251  0.43793763     0.98100
C633        C  0.96312971  0.07262360  0.40340095     0.94500
Al634      Al  0.00106893  0.10946248  0.40500444     1.55600
O635        O  0.92390639  0.13082791  0.39676041    -0.77200
C636        C  0.02332360  0.15786708  0.40610200     0.98700
C637        C  0.98885567  0.10971953  0.46797638     0.93600
O638        O  0.96629143  0.10632478  0.46101029    -0.82500
O639        O  0.94248767  0.89456554  0.32485511    -0.82000
C640        C  0.00528606  0.92435816  0.42234781     0.97400
O641        O  0.99787372  0.90269432  0.41694530    -0.71100
O642        O  0.94967154  0.90100247  0.41356491    -0.74700
Al643      Al  0.97525016  0.88942613  0.38758924     1.49000
C644        C  0.92831133  0.90729685  0.40504354     0.92600
O645        O  0.94634967  0.95716982  0.36352535    -0.80900
O646        O  0.00163648  0.92783765  0.31643656    -0.74500
Al647      Al  0.94627763  0.92522604  0.34514655     1.90100
O648        O  0.98531215  0.96497051  0.35422908    -0.73600
O649        O  0.02473323  0.90718576  0.36262328    -0.73400
O650        O  0.00376941  0.94104875  0.40201981    -0.79100
O651        O  0.00113099  0.87464366  0.36404829    -0.77300
O652        O  0.97421699  0.91615148  0.36402238    -1.13400
O653        O  0.95290253  0.87052913  0.36343411    -0.72600
C654        C  0.94300004  0.87356462  0.33735167     0.98100
C655        C  0.96390798  0.97235408  0.36133877     0.94500
Al656      Al  0.00154697  0.93394483  0.35910532     1.55600
O657        O  0.92448567  0.91503818  0.37792299    -0.77200
C658        C  0.02211353  0.88418138  0.35967804     0.98700
C659        C  0.98397270  0.93133720  0.29804703     0.93600
O660        O  0.96247104  0.93651202  0.30776356    -0.82500
O661        O  0.02846895  0.14277054  0.10057505    -0.82000
C662        C  0.03537087  0.10676293  0.22008748     0.97400
O663        O  0.02047877  0.09831555  0.20047586    -0.71100
O664        O  0.99490784  0.13542977  0.18020969    -0.74700
Al665      Al  0.01312523  0.11048787  0.16011208     1.49000
C666        C  0.99085831  0.15656973  0.16938767     0.92600
O667        O  0.04792688  0.17544235  0.17271478    -0.80900
O668        O  0.08570080  0.12094506  0.13384262    -0.74500
Al669      Al  0.03813031  0.15789463  0.13725317     1.90100
O670        O  0.07951816  0.15170707  0.18408603    -0.73600
O671        O  0.06401962  0.08456671  0.16414370    -0.73400
O672        O  0.05520529  0.11692738  0.21176557    -0.79100
O673        O  0.02824708  0.08384360  0.14075741    -0.77300
O674        O  0.04004051  0.12910246  0.15652046    -1.13400
O675        O  0.99996691  0.11851326  0.12012821    -0.72600
C676        C  0.01030224  0.12849288  0.09702910     0.98100
C677        C  0.06821973  0.17210336  0.18643590     0.94500
Al678      Al  0.06877616  0.11915502  0.17229370     1.55600
O679        O  0.00444674  0.16537807  0.14833445    -0.77200
C680        C  0.04824684  0.07347889  0.14782043     0.98700
C681        C  0.08719457  0.14065919  0.11852536     0.93600
O682        O  0.07118908  0.15744789  0.12139790    -0.82500
O683        O  0.02861495  0.89934674  0.16854079    -0.82000
C684        C  0.04015729  0.93477498  0.04771982     0.97400
O685        O  0.02400020  0.94243436  0.06658242    -0.71100
O686        O  0.99686227  0.90824617  0.09140215    -0.74700
Al687      Al  0.01660438  0.93321161  0.10839357     1.49000
C688        C  0.99430629  0.88634898  0.10011826     0.92600
O689        O  0.05437796  0.86766147  0.09793917    -0.80900
O690        O  0.08852428  0.92369348  0.13700881    -0.74500
Al691      Al  0.04156900  0.88533929  0.13222775     1.90100
O692        O  0.08528338  0.89223563  0.08765362    -0.73600
O693        O  0.06794276  0.95902237  0.10313098    -0.73400
O694        O  0.06019581  0.92549887  0.05708334    -0.79100
O695        O  0.03153357  0.96107309  0.12485694    -0.77300
O696        O  0.04354680  0.91434101  0.11283436    -1.13400
O697        O  0.00417015  0.92771534  0.14913972    -0.72600
C698        C  0.01212276  0.91553049  0.17189360     0.98100
C699        C  0.07499465  0.87150120  0.08507884     0.94500
Al700      Al  0.07286519  0.92435853  0.09756679     1.55600
O701        O  0.00959593  0.87641787  0.11803748    -0.77200
C702        C  0.05131321  0.97110395  0.11663772     0.98700
C703        C  0.08858583  0.90497893  0.15444687     0.93600
O704        O  0.07307044  0.88782053  0.15116854    -0.82500
C705        C  0.03474535  0.03795149  0.11680732    -0.12500
C706        C  0.05214326  0.04782694  0.13733508     0.04500
C707        C  0.07137237  0.03247841  0.14841417    -0.07800
C708        C  0.07200923  0.00750520  0.14001950    -0.08500
C709        C  0.05356140  0.99769642  0.12107614    -0.03100
C710        C  0.03516393  0.01319338  0.10895505     0.03800
N711        N  0.01631329  0.00381329  0.08914645     0.66300
H712        H  0.02009050  0.04929251  0.10738360     0.15200
H713        H  0.08610154  0.99552717  0.14958804     0.14900
N714        N  0.08949199  0.04151554  0.16941926     0.74000
O715        O  0.99499193  0.99956449  0.09987027    -0.39500
O716        O  0.01980266  0.00356931  0.06033027    -0.39400
O717        O  0.08606098  0.03931080  0.19814021    -0.40100
O718        O  0.11008226  0.04904691  0.15933335    -0.40200
C719        C  0.03130601  0.91061471  0.46547582    -0.12500
C720        C  0.01654938  0.92918232  0.45258869     0.04500
C721        C  0.01098069  0.95030321  0.47009521    -0.07800
C722        C  0.01810509  0.95296954  0.00242663    -0.08500
C723        C  0.03464101  0.93530747  0.01431737    -0.03100
C724        C  0.03952486  0.91210563  0.49584100     0.03800
N725        N  0.05241361  0.89147235  0.50870226     0.66300
H726        H  0.03564159  0.89424671  0.45224145     0.15200
H727        H  0.01112742  0.96748867  0.01715243     0.14900
N728        N  0.99605744  0.96963204  0.45760868     0.74000
O729        O  0.04078715  0.87602052  0.52508382    -0.39500
O730        O  0.08219673  0.89818350  0.99983152    -0.39400
O731        O  0.97350750  0.97112857  0.46496794    -0.40100
O732        O  0.00604403  0.98682283  0.44230786    -0.40200
C733        C  0.98959946  0.94759283  0.24460508    -0.12500
C734        C  0.98840221  0.92754586  0.26502573     0.04500
C735        C  0.99311890  0.90361584  0.25413737    -0.07800
C736        C  0.99983739  0.90004587  0.22337928    -0.08500
C737        C  0.00215818  0.92007575  0.20307183    -0.03100
C738        C  0.99654372  0.94404291  0.21366963     0.03800
N739        N  0.99968560  0.96505583  0.19403546     0.66300
H740        H  0.98616880  0.96607134  0.25297502     0.15200
H741        H  0.00389560  0.88153726  0.21552654     0.14900
N742        N  0.99171134  0.88277244  0.27433559     0.74000
O743        O  0.98134504  0.97390383  0.17987676    -0.39500
O744        O  0.01994392  0.97659929  0.19398749    -0.39400
O745        O  0.97363494  0.86818407  0.27230689    -0.40100
O746        O  0.01071729  0.87615702  0.28897189    -0.40200
C747        C  0.97805049  0.10087547  0.02687215    -0.12500
C748        C  0.98982873  0.11413695  0.00316464     0.04500
C749        C  0.00690155  0.13273942  0.01076297    -0.07800
C750        C  0.01273589  0.13708869  0.04137016    -0.08500
C751        C  0.00160459  0.12363468  0.06532226    -0.03100
C752        C  0.98376135  0.10548274  0.05794334     0.03800
N753        N  0.97157203  0.09138686  0.08144783     0.66300
H754        H  0.96461604  0.08678727  0.02126794     0.15200
H755        H  0.02602212  0.15149048  0.04626362     0.14900
N756        N  0.03951188  0.12333768  0.48675794     0.74000
O757        O  0.95344135  0.10054933  0.09579914    -0.39500
O758        O  0.97621793  0.06870562  0.08428857    -0.39400
O759        O  0.04677802  0.14519501  0.48252609    -0.40100
O760        O  0.05218508  0.10574412  0.47619905    -0.40200
C761        C  0.00106049  0.09686948  0.29542411    -0.12500
C762        C  0.00975753  0.11718487  0.31201605     0.04500
C763        C  0.02817437  0.13249093  0.29924233    -0.07800
C764        C  0.03762718  0.12720268  0.27017604    -0.08500
C765        C  0.02839303  0.10750335  0.25283690    -0.03100
C766        C  0.00996955  0.09208712  0.26568233     0.03800
N767        N  0.99995365  0.07184048  0.24878719     0.66300
H768        H  0.98700427  0.08497315  0.30539397     0.15200
H769        H  0.05114188  0.13972298  0.26033783     0.14900
N770        N  0.03741920  0.15356297  0.31531114     0.74000
O771        O  0.01354674  0.05379728  0.24176007    -0.39500
O772        O  0.97710698  0.07107471  0.24299974    -0.39400
O773        O  0.06016874  0.15485193  0.32146184    -0.40100
O774        O  0.02450200  0.17291484  0.31640682    -0.40200
C775        C  0.97669552  0.04057040  0.36742711    -0.12500
C776        C  0.95978088  0.04781604  0.39023097     0.04500
C777        C  0.94176618  0.03091436  0.40057014    -0.07800
C778        C  0.94208386  0.00656714  0.38935631    -0.08500
C779        C  0.96018250  0.99894596  0.36790409    -0.03100
C780        C  0.97682648  0.01664506  0.35585577     0.03800
N781        N  0.99411133  0.01060065  0.33190756     0.66300
H782        H  0.99013151  0.05366520  0.35855759     0.15200
H783        H  0.92919880  0.99325067  0.39891793     0.14900
N784        N  0.92452159  0.03754396  0.42420061     0.74000
O785        O  0.98637720  0.00380800  0.30583669    -0.39500
O786        O  0.01692524  0.01436455  0.33575529    -0.39400
O787        O  0.90171290  0.03845504  0.41826281    -0.40100
O788        O  0.93176243  0.03989518  0.45169897    -0.40200
C789        C  0.13865681  0.17555821  0.08206664    -0.12500
C790        C  0.13485160  0.16944718  0.05113014     0.04500
C791        C  0.11970831  0.14922009  0.04370002    -0.07800
C792        C  0.10625609  0.13728735  0.06706719    -0.08500
C793        C  0.10798264  0.14532214  0.09762820    -0.03100
C794        C  0.12537158  0.16355321  0.10540309     0.03800
N795        N  0.12758948  0.17190405  0.13651362     0.66300
H796        H  0.14998960  0.19134507  0.08786355     0.15200
H797        H  0.09259585  0.12356006  0.06090359     0.14900
N798        N  0.11519533  0.14295108  0.01222605     0.74000
O799        O  0.14003339  0.15945404  0.15559551    -0.39500
O800        O  0.12023577  0.19319645  0.14369559    -0.39400
O801        O  0.13332086  0.11670648  0.50857769    -0.40100
O802        O  0.10883061  0.14727127  0.49695559    -0.40200
C803        C  0.08972894  0.17365932  0.42750499    -0.12500
C804        C  0.08642616  0.19606210  0.44308240     0.04500
C805        C  0.06268399  0.20701166  0.44312422    -0.07800
C806        C  0.04278483  0.19481128  0.42944745    -0.08500
C807        C  0.04571487  0.17153590  0.41593206    -0.03100
C808        C  0.06978346  0.16126963  0.41418635     0.03800
N809        N  0.07444721  0.13809246  0.39963741     0.66300
H810        H  0.10781454  0.16507906  0.42658769     0.15200
H811        H  0.02468251  0.20325363  0.43059460     0.14900
N812        N  0.05808495  0.22998578  0.45807689     0.74000
O813        O  0.08767160  0.13749037  0.37558161    -0.39500
O814        O  0.07098316  0.11842492  0.41470056    -0.39400
O815        O  0.05790668  0.24966649  0.44244915    -0.40100
O816        O  0.05065128  0.23584958  0.97593941    -0.40200
C817        C  0.24196891  0.23421996  0.03150448    -0.12500
C818        C  0.23391661  0.21911171  0.50312116     0.04500
C819        C  0.25167724  0.21167183  0.48111245    -0.07800
C820        C  0.27689155  0.21267153  0.48846546    -0.08500
C821        C  0.28398449  0.22151966  0.01962162    -0.03100
C822        C  0.26714395  0.23427338  0.03853736     0.03800
N823        N  0.27551275  0.24833952  0.06425150     0.66300
H824        H  0.22946498  0.24484383  0.04585554     0.15200
H825        H  0.29056776  0.20834839  0.47093971     0.14900
N826        N  0.24455667  0.20532008  0.45044290     0.74000
O827        O  0.28350247  0.26991970  0.05985851    -0.39500
O828        O  0.27026666  0.24128489  0.09130057    -0.39400
O829        O  0.24578820  0.22128821  0.42923496    -0.40100
O830        O  0.24102702  0.18302659  0.44362831    -0.40200
C831        C  0.07132161  0.21704793  0.19711917    -0.12500
C832        C  0.07978823  0.19296601  0.20306483     0.04500
C833        C  0.10091341  0.18972695  0.22174116    -0.07800
C834        C  0.11388315  0.21031060  0.23225440    -0.08500
C835        C  0.10601369  0.23432998  0.22521511    -0.03100
C836        C  0.08433425  0.23769727  0.20762297     0.03800
N837        N  0.07638528  0.26175441  0.19807412     0.66300
H838        H  0.05536110  0.21998738  0.18250226     0.15200
H839        H  0.13024984  0.20744899  0.24618147     0.14900
N840        N  0.10938074  0.16572061  0.23049060     0.74000
O841        O  0.09070374  0.27528507  0.18232995    -0.39500
O842        O  0.05398915  0.26787655  0.20108670    -0.39400
O843        O  0.13072520  0.15865444  0.22266473    -0.40100
O844        O  0.09716163  0.15322290  0.24987771    -0.40200
C845        C  0.18681695  0.26916727  0.34681674    -0.12500
C846        C  0.16776734  0.25934803  0.32887132     0.04500
C847        C  0.15270358  0.24052140  0.34105495    -0.07800
C848        C  0.15621005  0.23246726  0.37132684    -0.08500
C849        C  0.17411228  0.24341114  0.39031466    -0.03100
C850        C  0.18994234  0.26157195  0.37754181     0.03800
N851        N  0.20870519  0.27303701  0.39560335     0.66300
H852        H  0.19843041  0.28371396  0.33750225     0.15200
H853        H  0.14377718  0.21854774  0.38048639     0.14900
N854        N  0.13336123  0.22979744  0.32312641     0.74000
O855        O  0.23038060  0.26445215  0.39513073    -0.39500
O856        O  0.20495614  0.29422378  0.40654463    -0.39400
O857        O  0.13669508  0.20907360  0.31071154    -0.40100
O858        O  0.11183911  0.23875133  0.32434674    -0.40200
C859        C  0.15959575  0.30417888  0.11957299    -0.12500
C860        C  0.16847187  0.28658761  0.14074928     0.04500
C861        C  0.17360309  0.26243783  0.13036756    -0.07800
C862        C  0.16806461  0.25588255  0.10005864    -0.08500
C863        C  0.15831843  0.27315535  0.07939552    -0.03100
C864        C  0.15448726  0.29759335  0.08896900     0.03800
N865        N  0.14319105  0.31516011  0.06879886     0.66300
H866        H  0.15514212  0.32264038  0.12723947     0.15200
H867        H  0.17162551  0.23719527  0.09247044     0.14900
N868        N  0.18461144  0.24441155  0.15026537     0.74000
O869        O  0.12005508  0.31483377  0.06514408    -0.39500
O870        O  0.15565079  0.33302413  0.05836346    -0.39400
O871        O  0.17387857  0.22409857  0.15510986    -0.40100
O872        O  0.20618298  0.24777057  0.16045342    -0.40200
C873        C  0.34280255  0.29781873  0.39446916    -0.12500
C874        C  0.34997380  0.28105067  0.37150774     0.04500
C875        C  0.36036433  0.25809710  0.38039413    -0.07800
C876        C  0.36451060  0.25312089  0.41134006    -0.08500
C877        C  0.35841088  0.27020895  0.43415085    -0.03100
C878        C  0.34687032  0.29256154  0.42571251     0.03800
N879        N  0.34023361  0.31053509  0.44829713     0.66300
H880        H  0.33479173  0.31543094  0.38815151     0.15200
H881        H  0.37269084  0.23552356  0.41747568     0.14900
N882        N  0.36801294  0.23991628  0.35848181     0.74000
O883        O  0.35667331  0.32412162  0.45987567    -0.39500
O884        O  0.31772890  0.31475469  0.45400615    -0.39400
O885        O  0.39035888  0.23322553  0.35774431    -0.40100
O886        O  0.35193160  0.22694232  0.34514549    -0.40200
C887        C  0.33996449  0.27648864  0.16626269    -0.12500
C888        C  0.35749338  0.26463848  0.18459052     0.04500
C889        C  0.36970210  0.24353310  0.17397503    -0.07800
C890        C  0.36440507  0.23465224  0.14469988    -0.08500
C891        C  0.34748602  0.24698663  0.12543089    -0.03100
C892        C  0.33483418  0.26794632  0.13671812     0.03800
N893        N  0.31704972  0.28103780  0.11864366     0.66300
H894        H  0.33068382  0.29286938  0.17466034     0.15200
H895        H  0.37452341  0.21868593  0.13659017     0.14900
N896        N  0.38745534  0.23097247  0.19272812     0.74000
O897        O  0.29462440  0.28045510  0.12679243    -0.39500
O898        O  0.32431873  0.29806117  0.10084250    -0.39400
O899        O  0.38165340  0.21104707  0.20602192    -0.40100
O900        O  0.40968548  0.23805074  0.19278079    -0.40200
C901        C  0.27131199  0.33499043  0.26820450    -0.12500
C902        C  0.28607840  0.31451546  0.26055441     0.04500
C903        C  0.27575179  0.29579792  0.24197900    -0.07800
C904        C  0.25122616  0.29728102  0.23275705    -0.08500
C905        C  0.23569763  0.31637650  0.24259369    -0.03100
C906        C  0.24608670  0.33586308  0.25980078     0.03800
N907        N  0.23107758  0.35574475  0.27051691     0.66300
H908        H  0.27892873  0.34957251  0.28227256     0.15200
H909        H  0.24399109  0.28240242  0.21882498     0.14900
N910        N  0.28958185  0.27463182  0.23255020     0.74000
O911        O  0.21731806  0.35275751  0.29383843    -0.39500
O912        O  0.23368145  0.37697516  0.25895845    -0.39400
O913        O  0.29080853  0.25634320  0.25059668    -0.40100
O914        O  0.29322319  0.27124110  0.20409965    -0.40200
C915        C  0.76834863  0.71214599  0.28401936    -0.12500
C916        C  0.78500160  0.72146287  0.26195524     0.04500
C917        C  0.77611794  0.72876748  0.23271984    -0.07800
C918        C  0.75072535  0.72809052  0.22672072    -0.08500
C919        C  0.73400346  0.72032990  0.24952181    -0.03100
C920        C  0.74289763  0.71192023  0.27816193     0.03800
N921        N  0.72624705  0.70449796  0.30210067     0.66300
H922        H  0.77490467  0.70673366  0.30668483     0.15200
H923        H  0.74394241  0.73456848  0.20459316     0.14900
N924        N  0.79265898  0.73720752  0.20910596     0.74000
O925        O  0.72637618  0.68243348  0.31141875    -0.39500
O926        O  0.71519554  0.72069822  0.31775776    -0.39400
O927        O  0.80429906  0.72177828  0.19289617    -0.40100
O928        O  0.79315237  0.75973234  0.20177746    -0.40200
C929        C  0.89645210  0.83298717  0.29633814    -0.12500
C930        C  0.90552874  0.80953609  0.30384028     0.04500
C931        C  0.92810638  0.80730375  0.31966870    -0.07800
C932        C  0.94062749  0.82850761  0.32904971    -0.08500
C933        C  0.93129737  0.85209352  0.32239754    -0.03100
C934        C  0.90945803  0.85426897  0.30474098     0.03800
N935        N  0.89996589  0.87782692  0.29573455     0.66300
H936        H  0.87948010  0.83474540  0.28326461     0.15200
H937        H  0.95742522  0.82650148  0.34240898     0.14900
N938        N  0.93790328  0.78363920  0.32770685     0.74000
O939        O  0.87873694  0.88439360  0.30466177    -0.39500
O940        O  0.91051232  0.88969787  0.27428388    -0.39400
O941        O  0.95949675  0.77780750  0.31932516    -0.40100
O942        O  0.92628019  0.76990755  0.34636086    -0.40200
C943        C  0.65379907  0.74013828  0.08973696    -0.12500
C944        C  0.66694668  0.76093801  0.07990816     0.04500
C945        C  0.68346734  0.77253927  0.10025855    -0.07800
C946        C  0.68599505  0.76344991  0.13046957    -0.08500
C947        C  0.67187055  0.74327660  0.14099850    -0.03100
C948        C  0.65611554  0.73116053  0.11986725     0.03800
N949        N  0.64114648  0.71065062  0.12897627     0.66300
H950        H  0.64111719  0.73113938  0.07406566     0.15200
H951        H  0.69798557  0.77316415  0.14627826     0.14900
N952        N  0.69604307  0.79475462  0.09155309     0.74000
O953        O  0.61922740  0.71422887  0.13799993    -0.39500
O954        O  0.64828297  0.68903861  0.12307234    -0.39400
O955        O  0.68371123  0.81343935  0.08349801    -0.40100
O956        O  0.71889028  0.79698279  0.09667914    -0.40200
C957        C  0.68405001  0.79301317  0.37013413    -0.12500
C958        C  0.66669319  0.78651234  0.39291251     0.04500
C959        C  0.64522526  0.77348243  0.38450809    -0.07800
C960        C  0.64154513  0.76695954  0.35388750    -0.08500
C961        C  0.65896839  0.77274794  0.33095362    -0.03100
C962        C  0.68050220  0.78595176  0.33923335     0.03800
N963        N  0.69948520  0.79106800  0.31707549     0.66300
H964        H  0.70074759  0.80275006  0.37652261     0.15200
H965        H  0.62471135  0.75720033  0.34810130     0.14900
N966        N  0.62665547  0.76698728  0.40675584     0.74000
O967        O  0.70036381  0.81187744  0.30400935    -0.39500
O968        O  0.71726052  0.77621646  0.31388489    -0.39400
O969        O  0.61415526  0.78372904  0.41951870    -0.40100
O970        O  0.61923221  0.74498219  0.40852072    -0.40200
C971        C  0.84703387  0.79866754  0.14785761    -0.12500
C972        C  0.85616996  0.78307502  0.12468300     0.04500
C973        C  0.86921155  0.76152397  0.13343057    -0.07800
C974        C  0.87316567  0.75636545  0.16461223    -0.08500
C975        C  0.86415993  0.77195573  0.18781482    -0.03100
C976        C  0.85083778  0.79331705  0.17917556     0.03800
N977        N  0.84161448  0.81014259  0.20175648     0.66300
H978        H  0.83710789  0.81531300  0.14167390     0.15200
H979        H  0.88312001  0.73968627  0.17061913     0.14900
N980        N  0.87924145  0.74490064  0.11109332     0.74000
O981        O  0.85619421  0.82506109  0.21456173    -0.39500
O982        O  0.81860306  0.81231088  0.20588552    -0.39400
O983        O  0.90238242  0.74239167  0.10895600    -0.40100
O984        O  0.86529808  0.72919189  0.09865613    -0.40200
C985        C  0.82592511  0.77111767  0.38564391    -0.12500
C986        C  0.83867184  0.74947583  0.37742096     0.04500
C987        C  0.85212779  0.73668023  0.40049502    -0.07800
C988        C  0.85452109  0.74678315  0.42979555    -0.08500
C989        C  0.84333402  0.76914871  0.43713976    -0.03100
C990        C  0.82820180  0.78108459  0.41535231     0.03800
N991        N  0.81662810  0.80413138  0.42219401     0.66300
H992        H  0.81543899  0.78119854  0.36845465     0.15200
H993        H  0.86586678  0.73738410  0.44678110     0.14900
N994        N  0.86486243  0.71418613  0.39421617     0.74000
O995        O  0.82973601  0.82275973  0.42801062    -0.39500
O996        O  0.79375187  0.80680534  0.41765133    -0.39400
O997        O  0.88817955  0.71403271  0.39284823    -0.40100
O998        O  0.85318089  0.69406778  0.39508819    -0.40200
C999        C  0.77610644  0.83054608  0.49073921    -0.12500
C1000       C  0.78310487  0.81790645  0.02800573     0.04500
C1001       C  0.76643644  0.79912510  0.03736674    -0.07800
C1002       C  0.74255235  0.79866844  0.02560610    -0.08500
C1003       C  0.73234527  0.82492266  0.50178470    -0.03100
C1004       C  0.75159862  0.82858242  0.48033754     0.03800
N1005       N  0.74650362  0.82974917  0.44798717     0.66300
H1006       H  0.79099164  0.83192322  0.47400666     0.15200
H1007       H  0.73040371  0.78365722  0.03232652     0.14900
N1008       N  0.77365593  0.77978170  0.05809344     0.74000
O1009       O  0.74661838  0.85032071  0.43428577    -0.39500
O1010       O  0.73907077  0.81083782  0.43394567    -0.39400
O1011       O  0.77997467  0.78477957  0.08537931    -0.40100
O1012       O  0.77226903  0.75757216  0.04973857    -0.40200
C1013       C  0.87370590  0.87455273  0.43797845    -0.12500
C1014       C  0.87916006  0.87596280  0.46949517     0.04500
C1015       C  0.89627352  0.89379556  0.47972423    -0.07800
C1016       C  0.91087702  0.90630884  0.45792190    -0.08500
C1017       C  0.90750214  0.90245127  0.42623008    -0.03100
C1018       C  0.88732153  0.88810854  0.41630891     0.03800
N1019       N  0.88271427  0.88428849  0.38423285     0.66300
H1020       H  0.86030750  0.86125305  0.42991868     0.15200
H1021       H  0.92599761  0.91778465  0.46573730     0.14900
N1022       N  0.90702903  0.89067546  0.01202959     0.74000
O1023       O  0.88673378  0.86341212  0.37253973    -0.39500
O1024       O  0.87026324  0.90000373  0.36938892    -0.39400
O1025       O  0.92975134  0.88960496  0.01851315    -0.40100
O1026       O  0.89169918  0.89612284  0.03295689    -0.40200
C1027       C  0.92935640  0.86278327  0.08842546    -0.12500
C1028       C  0.93305001  0.84499397  0.06529866     0.04500
C1029       C  0.95754326  0.84067124  0.05442986    -0.07800
C1030       C  0.97731257  0.85375940  0.06715848    -0.08500
C1031       C  0.97321996  0.87206341  0.08904872    -0.03100
C1032       C  0.94911223  0.87671859  0.09969995     0.03800
N1033       N  0.94443042  0.89582542  0.12157103     0.66300
H1034       H  0.91087017  0.86681753  0.09673357     0.15200
H1035       H  0.99594963  0.85041127  0.05882206     0.14900
N1036       N  0.96293950  0.82375280  0.03002951     0.74000
O1037       O  0.94338318  0.91796559  0.11262563    -0.39500
O1038       O  0.93845505  0.89038451  0.14895918    -0.39400
O1039       O  0.95739744  0.82962662  0.00267828    -0.40100
O1040       O  0.97954003  0.80774972  0.03420984    -0.40200
C1041       C  0.58976459  0.86114638  0.42739769    -0.12500
C1042       C  0.58626949  0.83971322  0.44523927     0.04500
C1043       C  0.56189048  0.83164031  0.45151987    -0.07800
C1044       C  0.54171048  0.84532021  0.44074638    -0.08500
C1045       C  0.54531427  0.86731469  0.42439509    -0.03100
C1046       C  0.56951832  0.87520425  0.41749654     0.03800
N1047       N  0.57376981  0.89756043  0.40070510     0.66300
H1048       H  0.60828724  0.86784953  0.42270276     0.15200
H1049       H  0.52310974  0.83904010  0.44575310     0.14900
N1050       N  0.55731267  0.80965044  0.46890001     0.74000
O1051       O  0.57263616  0.91797159  0.41447143    -0.39500
O1052       O  0.58178808  0.89674872  0.37332681    -0.39400
O1053       O  0.55305969  0.80187400  0.98323679    -0.40100
O1054       O  0.55982213  0.78894751  0.45615257    -0.40200
C1055       C  0.44503986  0.21159767  0.32018672    -0.12500
C1056       C  0.43393058  0.18846496  0.31703226     0.04500
C1057       C  0.41238784  0.18651467  0.29882528    -0.07800
C1058       C  0.40143886  0.20794310  0.28672274    -0.08500
C1059       C  0.41204998  0.23137162  0.29117618    -0.03100
C1060       C  0.43456117  0.23280272  0.30740697     0.03800
N1061       N  0.44698886  0.25557755  0.31216274     0.66300
H1062       H  0.46166291  0.21358218  0.33383077     0.15200
H1063       H  0.38457967  0.20616351  0.27348481     0.14900
N1064       N  0.40173596  0.16304550  0.29176280     0.74000
O1065       O  0.43743385  0.27141200  0.32983304    -0.39500
O1066       O  0.46979338  0.25670417  0.30603234    -0.39400
O1067       O  0.37881833  0.15959494  0.29532724    -0.40100
O1068       O  0.41446309  0.14708958  0.27773407    -0.40200
C1069       C  0.37576435  0.17013692  0.44019987    -0.12500
C1070       C  0.38352816  0.16821555  0.47091663     0.04500
C1071       C  0.40040679  0.14962334  0.47937744    -0.07800
C1072       C  0.41110378  0.13483298  0.45655866    -0.08500
C1073       C  0.40543489  0.13864864  0.42537138    -0.03100
C1074       C  0.38646651  0.15529371  0.41729903     0.03800
N1075       N  0.38026123  0.15932966  0.38549347     0.66300
H1076       H  0.36290199  0.18454676  0.43363845     0.15200
H1077       H  0.42616423  0.12262238  0.46280819     0.14900
N1078       N  0.41528365  0.15010258  0.01074240     0.74000
O1079       O  0.37735045  0.14125495  0.36763598    -0.39500
O1080       O  0.37793642  0.18094777  0.37504802    -0.39400
O1081       O  0.41235100  0.13215197  0.02901264    -0.40100
O1082       O  0.43199901  0.16570441  0.01610129    -0.40200
C1083       C  0.45806210  0.03346227  0.40775009    -0.12500
C1084       C  0.45880015  0.04161273  0.37698828     0.04500
C1085       C  0.45903396  0.02424388  0.35293660    -0.07800
C1086       C  0.46022342  0.99906190  0.35995378    -0.08500
C1087       C  0.46028990  0.99092905  0.39071782    -0.03100
C1088       C  0.45844747  0.00823769  0.41476691     0.03800
N1089       N  0.45906271  0.00053771  0.44637631     0.66300
H1090       H  0.45818247  0.04674794  0.42636307     0.15200
H1091       H  0.46166073  0.98583018  0.34135853     0.14900
N1092       N  0.46008707  0.03201628  0.32138533     0.74000
O1093       O  0.47939459  0.99484234  0.45871533    -0.39500
O1094       O  0.43983083  0.00212181  0.46284228    -0.39400
O1095       O  0.48038457  0.03148237  0.30693377    -0.40100
O1096       O  0.44034641  0.03656688  0.30700081    -0.40200
C1097       C  0.59567038  0.82903282  0.17229727    -0.12500
C1098       C  0.58609550  0.84694313  0.19242473     0.04500
C1099       C  0.58858046  0.84341745  0.22459050    -0.07800
C1100       C  0.60019542  0.82205013  0.23590159    -0.08500
C1101       C  0.61016141  0.80455212  0.21555125    -0.03100
C1102       C  0.60785749  0.80817070  0.18349962     0.03800
N1103       N  0.61758179  0.79064451  0.16202763     0.66300
H1104       H  0.59401594  0.83137778  0.14751551     0.15200
H1105       H  0.60217702  0.81951596  0.26061119     0.14900
N1106       N  0.57934640  0.86119933  0.24597154     0.74000
O1107       O  0.60818728  0.76941610  0.16032342    -0.39500
O1108       O  0.63392995  0.79712010  0.14276067    -0.39400
O1109       O  0.55918128  0.85732436  0.25992663    -0.40100
O1110       O  0.59294653  0.87887941  0.25415441    -0.40200
C1111       C  0.60371764  0.89843541  0.05784878    -0.12500
C1112       C  0.60885346  0.89626656  0.08956016     0.04500
C1113       C  0.62910634  0.88180590  0.09934762    -0.07800
C1114       C  0.64130263  0.86667735  0.07791105    -0.08500
C1115       C  0.63424148  0.86690661  0.04677866    -0.03100
C1116       C  0.61646521  0.88392087  0.03645245     0.03800
N1117       N  0.60797030  0.88379982  0.00520744     0.66300
H1118       H  0.58900520  0.90862830  0.05052442     0.15200
H1119       H  0.65485097  0.85414341  0.08557976     0.14900
N1120       N  0.63589898  0.88021469  0.13126820     0.74000
O1121       O  0.58679887  0.87534959  0.99923437    -0.39500
O1122       O  0.61936848  0.89623862  0.98499302    -0.39400
O1123       O  0.63958244  0.85945861  0.14366628    -0.40100
O1124       O  0.64235158  0.89944821  0.14539168    -0.40200
C1125       C  0.50759400  0.94216225  0.01047821    -0.12500
C1126       C  0.48593881  0.92983848  0.00142056     0.04500
C1127       C  0.47183161  0.91721517  0.02416983    -0.07800
C1128       C  0.48065721  0.91543906  0.05432443    -0.08500
C1129       C  0.50270995  0.92686050  0.06285548    -0.03100
C1130       C  0.51590390  0.94096237  0.04102324     0.03800
N1131       N  0.53861662  0.95272506  0.04892704     0.66300
H1132       H  0.51770224  0.95199560  0.49213852     0.15200
H1133       H  0.47046781  0.90458683  0.07107771     0.14900
N1134       N  0.44902376  0.90524965  0.01695833     0.74000
O1135       O  0.55871319  0.94382440  0.03921988    -0.39500
O1136       O  0.53817204  0.97470909  0.05817042    -0.39400
O1137       O  0.44804151  0.88203808  0.01588232    -0.40100
O1138       O  0.42928154  0.91763092  0.01597929    -0.40200
C1139       C  0.53061323  0.93206111  0.30464120    -0.12500
C1140       C  0.51458701  0.91220258  0.31116626     0.04500
C1141       C  0.50712873  0.89663164  0.28678916    -0.07800
C1142       C  0.51362774  0.90258729  0.25661989    -0.08500
C1143       C  0.52854441  0.92299015  0.24998786    -0.03100
C1144       C  0.53793299  0.93731735  0.27419726     0.03800
N1145       N  0.55377101  0.95785683  0.26810085     0.66300
H1146       H  0.53687230  0.94398386  0.32302038     0.15200
H1147       H  0.50740904  0.89070963  0.23811627     0.14900
N1148       N  0.49350681  0.87435586  0.29215577     0.74000
O1149       O  0.54461126  0.97837248  0.26045571    -0.39500
O1150       O  0.57664957  0.95617154  0.27334050    -0.39400
O1151       O  0.47372696  0.87042371  0.27759751    -0.40100
O1152       O  0.50326846  0.85703600  0.30738640    -0.40200
C1153       C  0.47653933  0.19431676  0.09004027    -0.12500
C1154       C  0.47281672  0.17164739  0.10509529     0.04500
C1155       C  0.44840555  0.16257445  0.10809384    -0.07800
C1156       C  0.42875512  0.17515766  0.09420889    -0.08500
C1157       C  0.43267641  0.19688401  0.07711264    -0.03100
C1158       C  0.45691000  0.20677229  0.07574432     0.03800
N1159       N  0.46236123  0.22842088  0.05807937     0.66300
H1160       H  0.49507822  0.20166001  0.08749449     0.15200
H1161       H  0.41034966  0.16740002  0.09620988     0.14900
N1162       N  0.44321179  0.14040199  0.12485853     0.74000
O1163       O  0.46449457  0.24889990  0.07146723    -0.39500
O1164       O  0.46881828  0.22643999  0.03016330    -0.39400
O1165       O  0.44156423  0.14091807  0.15392348    -0.40100
O1166       O  0.43721662  0.12112090  0.11054011    -0.40200
C1167       C  0.54047323  0.11381852  0.49629418    -0.12500
C1168       C  0.52521377  0.11453947  0.01897604     0.04500
C1169       C  0.50629000  0.13107838  0.01060332    -0.07800
C1170       C  0.49086719  0.11096916  0.47871767    -0.08500
C1171       C  0.50890355  0.11739021  0.45697234    -0.03100
C1172       C  0.53396074  0.11826307  0.46551813     0.03800
N1173       N  0.55262648  0.12550428  0.44380183     0.66300
H1174       H  0.55961320  0.11597983  0.50309338     0.15200
H1175       H  0.47166449  0.10944349  0.47185217     0.14900
N1176       N  0.49374046  0.14583652  0.03294837     0.74000
O1177       O  0.55314932  0.14732701  0.43360440    -0.39500
O1178       O  0.56998242  0.11088577  0.43719003    -0.39400
O1179       O  0.49952789  0.16824422  0.03552139    -0.40100
O1180       O  0.47367459  0.13824211  0.04451284    -0.40200
C1181       C  0.49193928  0.08501057  0.25131504    -0.12500
C1182       C  0.48618721  0.10591281  0.26884944     0.04500
C1183       C  0.48831948  0.12949039  0.25557270    -0.07800
C1184       C  0.49624737  0.13197853  0.22530199    -0.08500
C1185       C  0.50273332  0.11138138  0.20761545    -0.03100
C1186       C  0.50011835  0.08755913  0.22060975     0.03800
N1187       N  0.50608942  0.06597796  0.20333002     0.66300
H1188       H  0.49022067  0.06681688  0.26148147     0.15200
H1189       H  0.49797327  0.15047048  0.21596944     0.14900
N1190       N  0.48434955  0.15131106  0.27329070     0.74000
O1191       O  0.52831646  0.05915805  0.20081174    -0.39500
O1192       O  0.48901080  0.05231306  0.19344802    -0.39400
O1193       O  0.50075071  0.15797880  0.29208114    -0.40100
O1194       O  0.46832329  0.16672741  0.26461801    -0.40200
C1195       C  0.57663079  0.03362413  0.13698690    -0.12500
C1196       C  0.55707676  0.04229183  0.11842360     0.04500
C1197       C  0.53875529  0.02540225  0.10883275    -0.07800
C1198       C  0.53882938  0.00142148  0.12029153    -0.08500
C1199       C  0.55760408  0.99294641  0.13974290    -0.03100
C1200       C  0.57713081  0.00895207  0.14743197     0.03800
N1201       N  0.59622923  0.00110619  0.16792934     0.66300
H1202       H  0.59077186  0.04627658  0.14475671     0.15200
H1203       H  0.52395091  0.98915594  0.11371876     0.14900
N1204       N  0.51970182  0.03233410  0.08759432     0.74000
O1205       O  0.61714691  0.99516115  0.15731889    -0.39500
O1206       O  0.59306948  0.00267210  0.19673989    -0.39400
O1207       O  0.52529789  0.03871557  0.06038217    -0.40100
O1208       O  0.49724812  0.02973997  0.09500663    -0.40200
C1209       C  0.94416108  0.71321294  0.06156683    -0.12500
C1210       C  0.93120853  0.69077939  0.06268617     0.04500
C1211       C  0.90836031  0.68907770  0.04719779    -0.07800
C1212       C  0.89806078  0.71012089  0.03351858    -0.08500
C1213       C  0.91012970  0.73306949  0.03442531    -0.03100
C1214       C  0.93404569  0.73413565  0.04729358     0.03800
N1215       N  0.94815597  0.75634216  0.04678116     0.66300
H1216       H  0.96217254  0.71465161  0.07232493     0.15200
H1217       H  0.87991483  0.70859221  0.02316551     0.14900
N1218       N  0.89450031  0.66667170  0.04667372     0.74000
O1219       O  0.94526307  0.77199699  0.06794310    -0.39500
O1220       O  0.96658670  0.75797682  0.02893004    -0.39400
O1221       O  0.88135534  0.66105794  0.06972985    -0.40100
O1222       O  0.89624951  0.65395412  0.52386508    -0.40200
C1223       C  0.91970161  0.64141725  0.20993164    -0.12500
C1224       C  0.91208696  0.64420127  0.17925848     0.04500
C1225       C  0.88998530  0.65700915  0.17292863    -0.07800
C1226       C  0.87774562  0.66956068  0.19671482    -0.08500
C1227       C  0.88729764  0.66931305  0.22667969    -0.03100
C1228       C  0.90765085  0.65402981  0.23362804     0.03800
N1229       N  0.91812736  0.65340324  0.26387032     0.66300
H1230       H  0.93669943  0.63162876  0.21506499     0.15200
H1231       H  0.86232064  0.68152615  0.19112664     0.14900
N1232       N  0.88185803  0.66041968  0.14193728     0.74000
O1233       O  0.91789364  0.63341332  0.27886543    -0.39500
O1234       O  0.93311007  0.67007215  0.27156734    -0.39400
O1235       O  0.87166235  0.64284723  0.12790095    -0.40100
O1236       O  0.88306582  0.68146475  0.12950130    -0.40200
C1237       C  0.94921924  0.51337975  0.15843392    -0.12500
C1238       C  0.96182859  0.49628792  0.13975360     0.04500
C1239       C  0.97238810  0.50431103  0.11151883    -0.07800
C1240       C  0.97189621  0.52932099  0.10386302    -0.08500
C1241       C  0.96063693  0.54659915  0.12326955    -0.03100
C1242       C  0.94874318  0.53854299  0.15050600     0.03800
N1243       N  0.93837700  0.55588530  0.17169484     0.66300
H1244       H  0.94124019  0.50748447  0.18024558     0.15200
H1245       H  0.98060044  0.53541561  0.08255635     0.14900
N1246       N  0.98377087  0.48734193  0.09042436     0.74000
O1247       O  0.91535208  0.55626796  0.17650615    -0.39500
O1248       O  0.95240671  0.56948614  0.18742731    -0.39400
O1249       O  0.97285273  0.46762739  0.08326533    -0.40100
O1250       O  0.00349365  0.49317556  0.07650544    -0.40200
C1251       C  0.04227878  0.35675124  0.20692163    -0.12500
C1252       C  0.04482905  0.37163745  0.18078090     0.04500
C1253       C  0.06783685  0.37327874  0.16569868    -0.07800
C1254       C  0.08821248  0.36025883  0.17730388    -0.08500
C1255       C  0.08605826  0.34568429  0.20415388    -0.03100
C1256       C  0.06256243  0.34397630  0.21895464     0.03800
N1257       N  0.05891981  0.32998552  0.24669328     0.66300
H1258       H  0.02454086  0.35560257  0.21862402     0.15200
H1259       H  0.10586954  0.36198934  0.16557673     0.14900
N1260       N  0.07080026  0.38846515  0.13888827     0.74000
O1261       O  0.06452060  0.33940629  0.27232818    -0.39500
O1262       O  0.04523400  0.31116069  0.24623099    -0.39400
O1263       O  0.08001056  0.40972514  0.14128814    -0.40100
O1264       O  0.06548908  0.38013867  0.11258173    -0.40200
C1265       C  0.95282052  0.70865260  0.33207527    -0.12500
C1266       C  0.92919404  0.69785069  0.33360621     0.04500
C1267       C  0.92659068  0.67476366  0.34870611    -0.07800
C1268       C  0.94764976  0.66215703  0.35880544    -0.08500
C1269       C  0.97141505  0.67215607  0.35497921    -0.03100
C1270       C  0.97374714  0.69626381  0.34301487     0.03800
N1271       N  0.99723817  0.70821407  0.34093620     0.66300
H1272       H  0.95532555  0.72655287  0.32136254     0.15200
H1273       H  0.94536132  0.64406023  0.36913033     0.14900
N1274       N  0.90292863  0.66361021  0.35393757     0.74000
O1275       O  0.00724568  0.71149404  0.31487442    -0.39500
O1276       O  0.00526058  0.71984262  0.36397148    -0.39400
O1277       O  0.89281018  0.65159603  0.33255735    -0.40100
O1278       O  0.89557806  0.66030149  0.38133732    -0.40200
C1279       C  0.03268268  0.59587917  0.24215405    -0.12500
C1280       C  0.02775471  0.61478285  0.26323230     0.04500
C1281       C  0.01711809  0.63690050  0.25278368    -0.07800
C1282       C  0.01072880  0.63962613  0.22186249    -0.08500
C1283       C  0.01478841  0.62057991  0.20056803    -0.03100
C1284       C  0.02614616  0.59853074  0.21092352     0.03800
N1285       N  0.03104937  0.57869114  0.19021896     0.66300
H1286       H  0.04089552  0.57878706  0.25011592     0.15200
H1287       H  0.00225364  0.65680621  0.21467547     0.14900
N1288       N  0.01319546  0.65704164  0.27337411     0.74000
O1289       O  0.01545414  0.56156994  0.18730282    -0.39500
O1290       O  0.05216500  0.57664017  0.17799330    -0.39400
O1291       O  0.03105846  0.67086198  0.28036646    -0.40100
O1292       O  0.99151310  0.66280944  0.28142068    -0.40200
C1293       C  0.00490578  0.59154342  0.50280483    -0.12500
C1294       C  0.98443591  0.60575720  0.01293925     0.04500
C1295       C  0.96869657  0.61599607  0.48999952    -0.07800
C1296       C  0.97656162  0.61696726  0.45930005    -0.08500
C1297       C  0.99864291  0.60564415  0.45031610    -0.03100
C1298       C  0.01229142  0.59182187  0.47181145     0.03800
N1299       N  0.03473319  0.57983203  0.46297667     0.66300
H1300       H  0.01365963  0.57875691  0.01648181     0.15200
H1301       H  0.96602438  0.62763083  0.44268232     0.14900
N1302       N  0.95193118  0.63687239  0.00384964     0.74000
O1303       O  0.05475139  0.59173884  0.46258300    -0.39500
O1304       O  0.03510635  0.55675783  0.45962684    -0.39400
O1305       O  0.95496210  0.65988487  0.00546943    -0.40100
O1306       O  0.92658041  0.61695862  0.50037541    -0.40200
C1307       C  0.01425435  0.40493614  0.01278684    -0.12500
C1308       C  0.02794120  0.42582089  0.00454581     0.04500
C1309       C  0.03584034  0.44211810  0.02770452    -0.07800
C1310       C  0.02923618  0.43751914  0.05868654    -0.08500
C1311       C  0.01473517  0.41689271  0.06680767    -0.03100
C1312       C  0.00807255  0.39998909  0.04343108     0.03800
N1313       N  0.99550785  0.37736811  0.05034663     0.66300
H1314       H  0.00863766  0.39200172  0.99516994     0.15200
H1315       H  0.03447776  0.45071178  0.07617232     0.14900
N1316       N  0.04876982  0.46427198  0.01987001     0.74000
O1317       O  0.97535615  0.37237127  0.03715516    -0.39500
O1318       O  0.00627263  0.36093780  0.06604889    -0.39400
O1319       O  0.04114251  0.48069155  0.51158074    -0.40100
O1320       O  0.07006510  0.46814292  0.03061739    -0.40200
C1321       C  0.98236946  0.41505348  0.30726437    -0.12500
C1322       C  0.00068205  0.43065443  0.31874314     0.04500
C1323       C  0.00995862  0.44976963  0.29989168    -0.07800
C1324       C  0.00217790  0.45167064  0.26901368    -0.08500
C1325       C  0.98446935  0.43530971  0.25703391    -0.03100
C1326       C  0.97399625  0.41733534  0.27696908     0.03800
N1327       N  0.95642452  0.39973742  0.26618991     0.66300
H1328       H  0.97513488  0.40028385  0.32164753     0.15200
H1329       H  0.01029182  0.46570092  0.25425260     0.14900
N1330       N  0.02820904  0.46642910  0.31126719     0.74000
O1331       O  0.96393836  0.37928130  0.25610550    -0.39500
O1332       O  0.93383296  0.40246086  0.27273325    -0.39400
O1333       O  0.05016602  0.46522822  0.30145645    -0.40100
O1334       O  0.02173311  0.48423143  0.32809065    -0.40200
C1335       C  0.03263125  0.50725153  0.39607069    -0.12500
C1336       C  0.05515170  0.49440147  0.39712280     0.04500
C1337       C  0.07665689  0.50632343  0.38596481    -0.07800
C1338       C  0.07505311  0.53055134  0.37395447    -0.08500
C1339       C  0.05216875  0.54297910  0.37233907    -0.03100
C1340       C  0.03080030  0.53080015  0.38361656     0.03800
N1341       N  0.00680187  0.54194180  0.38296188     0.66300
H1342       H  0.01565857  0.49870599  0.40410414     0.15200
H1343       H  0.09170061  0.53960644  0.36575793     0.14900
N1344       N  0.10013619  0.49426128  0.38683714     0.74000
O1345       O  0.99432044  0.54102583  0.35842295    -0.39500
O1346       O  0.99584075  0.54638825  0.40811436    -0.39400
O1347       O  0.11027073  0.48721663  0.36211300    -0.40100
O1348       O  0.11074033  0.49051795  0.41234400    -0.40200
C1349       C  0.09563472  0.32855413  0.42219541    -0.12500
C1350       C  0.08630559  0.34640322  0.44263833     0.04500
C1351       C  0.08861463  0.34238838  0.47473638    -0.07800
C1352       C  0.10049112  0.32106811  0.48567851    -0.08500
C1353       C  0.11062866  0.30387469  0.46510406    -0.03100
C1354       C  0.10774224  0.30750895  0.43314030     0.03800
N1355       N  0.11625631  0.28948418  0.41158997     0.66300
H1356       H  0.09383678  0.33108111  0.39745853     0.15200
H1357       H  0.10101315  0.31969866  0.00987887     0.14900
N1358       N  0.07853486  0.35942498  0.49646186     0.74000
O1359       O  0.10222685  0.27204395  0.40374628    -0.39500
O1360       O  0.13717330  0.29182408  0.39892941    -0.39400
O1361       O  0.05773250  0.35706816  0.00938253    -0.40100
O1362       O  0.09167423  0.37868021  0.00705974    -0.40200
C1363       C  0.12788122  0.38224095  0.35348645    -0.12500
C1364       C  0.10860156  0.39682363  0.34165122     0.04500
C1365       C  0.10606285  0.39936412  0.30941450    -0.07800
C1366       C  0.12096662  0.38538002  0.28975787    -0.08500
C1367       C  0.13775004  0.36818899  0.30181791    -0.03100
C1368       C  0.14226352  0.36767047  0.33376909     0.03800
N1369       N  0.16010212  0.35113840  0.34655632     0.66300
H1370       H  0.13008418  0.38010888  0.37823023     0.15200
H1371       H  0.11731069  0.38590677  0.26515476     0.14900
N1372       N  0.08713501  0.41450357  0.29634602     0.74000
O1373       O  0.18225658  0.35800917  0.34944079    -0.39500
O1374       O  0.15317824  0.33106931  0.35858020    -0.39400
O1375       O  0.09289237  0.43524514  0.28519080    -0.40100
O1376       O  0.06657938  0.40503543  0.28942568    -0.40200
C1377       C  0.11163896  0.88575691  0.23065256    -0.12500
C1378       C  0.13195436  0.87158720  0.22138089     0.04500
C1379       C  0.14172980  0.87456069  0.19147940    -0.07800
C1380       C  0.12931019  0.88971045  0.17025539    -0.08500
C1381       C  0.10717177  0.90151812  0.17858460    -0.03100
C1382       C  0.09919369  0.90071912  0.20954675     0.03800
N1383       N  0.07655812  0.91223533  0.21875880     0.66300
H1384       H  0.10396503  0.88336898  0.25364591     0.15200
H1385       H  0.13523390  0.88977472  0.14635514     0.14900
N1386       N  0.16184209  0.85961714  0.18112761     0.74000
O1387       O  0.05889970  0.89922927  0.22879518    -0.39500
O1388       O  0.07571142  0.93533595  0.22170957    -0.39400
O1389       O  0.15757437  0.83968855  0.16724750    -0.40100
O1390       O  0.18365998  0.86776454  0.18240628    -0.40200
C1391       C  0.06740560  0.88022274  0.35011505    -0.12500
C1392       C  0.04396007  0.86900990  0.35046287     0.04500
C1393       C  0.04195266  0.84449119  0.33975456    -0.07800
C1394       C  0.06275605  0.83265418  0.32706149    -0.08500
C1395       C  0.08596991  0.84439976  0.32532502    -0.03100
C1396       C  0.08819417  0.86832504  0.33785938     0.03800
N1397       N  0.11117976  0.88134523  0.33745507     0.66300
H1398       H  0.06962973  0.89882686  0.35864315     0.15200
H1399       H  0.06055543  0.81417134  0.31813663     0.14900
N1400       N  0.01892474  0.83148754  0.34083388     0.74000
O1401       O  0.11710480  0.89390552  0.31396830    -0.39500
O1402       O  0.12280863  0.88439366  0.36234700    -0.39400
O1403       O  0.00940987  0.82364062  0.31619916    -0.40100
O1404       O  0.01043826  0.82419472  0.36648962    -0.40200
C1405       C  0.09845198  0.73302505  0.33172530    -0.12500
C1406       C  0.10823558  0.73222831  0.30189082     0.04500
C1407       C  0.10551344  0.71074201  0.28414530    -0.07800
C1408       C  0.09348310  0.69012244  0.29683421    -0.08500
C1409       C  0.08370410  0.69066885  0.32696342    -0.03100
C1410       C  0.08613411  0.71267944  0.34436121     0.03800
N1411       N  0.07685433  0.71464006  0.37521820     0.66300
H1412       H  0.10064079  0.74951903  0.34548357     0.15200
H1413       H  0.09186266  0.67361648  0.28301373     0.14900
N1414       N  0.11566301  0.70930295  0.25366630     0.74000
O1415       O  0.09040697  0.70851684  0.39764000    -0.39500
O1416       O  0.05711406  0.72637426  0.38023441    -0.39400
O1417       O  0.13211787  0.69351948  0.24770923    -0.40100
O1418       O  0.10583720  0.72128682  0.23188832    -0.40200
C1419       C  0.39049459  0.88811979  0.29259793    -0.12500
C1420       C  0.37747773  0.86695418  0.30198607     0.04500
C1421       C  0.37597131  0.86106630  0.33360813    -0.07800
C1422       C  0.39011366  0.87425507  0.35473392    -0.08500
C1423       C  0.40578512  0.89322426  0.34475507    -0.03100
C1424       C  0.40487238  0.90125751  0.31384927     0.03800
N1425       N  0.42072285  0.92055901  0.30304116     0.66300
H1426       H  0.39215483  0.89247850  0.26821791     0.15200
H1427       H  0.39079915  0.86800772  0.37855446     0.14900
N1428       N  0.36271579  0.83975789  0.34392850     0.74000
O1429       O  0.44337155  0.91634113  0.29831263    -0.39500
O1430       O  0.41153736  0.94085750  0.29457859    -0.39400
O1431       O  0.37400293  0.82253020  0.35758332    -0.40100
O1432       O  0.33939075  0.83976168  0.34330850    -0.40200
C1433       C  0.42983407  0.86139830  0.17999046    -0.12500
C1434       C  0.43422594  0.84102720  0.19941202     0.04500
C1435       C  0.45896211  0.83313713  0.20357397    -0.07800
C1436       C  0.47845807  0.84594472  0.18910012    -0.08500
C1437       C  0.47396650  0.86675493  0.17048761    -0.03100
C1438       C  0.44925193  0.87410196  0.16554034     0.03800
N1439       N  0.44342944  0.89392932  0.14499190     0.66300
H1440       H  0.41109027  0.86758801  0.17576074     0.15200
H1441       H  0.49730052  0.84008458  0.19340757     0.14900
N1442       N  0.46478268  0.81278113  0.22329622     0.74000
O1443       O  0.44339822  0.89017327  0.11627355    -0.39500
O1444       O  0.43405679  0.91348935  0.15546345    -0.39400
O1445       O  0.47032969  0.79221667  0.21169795    -0.40100
O1446       O  0.46759488  0.81618460  0.25187376    -0.40200
C1447       C  0.27548549  0.82295476  0.27476721    -0.12500
C1448       C  0.28381972  0.81357558  0.24648454     0.04500
C1449       C  0.26652259  0.80534811  0.22466535    -0.07800
C1450       C  0.24126399  0.80547814  0.23190698    -0.08500
C1451       C  0.23280867  0.81403452  0.26063986    -0.03100
C1452       C  0.25013304  0.82329187  0.28201521     0.03800
N1453       N  0.24253868  0.83090004  0.31217046     0.66300
H1454       H  0.28878404  0.82885006  0.29187961     0.15200
H1455       H  0.22822146  0.79830581  0.21525943     0.14900
N1456       N  0.27451469  0.79568556  0.19564344     0.74000
O1457       O  0.23567580  0.81500753  0.33178231    -0.39500
O1458       O  0.24577856  0.85291252  0.32047190    -0.39400
O1459       O  0.27546462  0.77269019  0.19165392    -0.40100
O1460       O  0.27815208  0.81005885  0.17309098    -0.40200
C1461       C  0.12327400  0.83321150  0.04192142    -0.12500
C1462       C  0.11039367  0.81109286  0.03695993     0.04500
C1463       C  0.08519351  0.80989995  0.04585150    -0.07800
C1464       C  0.07408670  0.82982462  0.06100174    -0.08500
C1465       C  0.08733631  0.85143585  0.06738334    -0.03100
C1466       C  0.11216847  0.85313261  0.05710318     0.03800
N1467       N  0.12700038  0.87425286  0.06359792     0.66300
H1468       H  0.14258285  0.83472579  0.03539078     0.15200
H1469       H  0.05490758  0.82817918  0.06807986     0.14900
N1470       N  0.07074746  0.78826834  0.04088327     0.74000
O1471       O  0.13862528  0.87532269  0.08875630    -0.39500
O1472       O  0.13200102  0.88941469  0.04229682    -0.39400
O1473       O  0.06254116  0.77625419  0.06374594    -0.40100
O1474       O  0.05579927  0.78431379  0.51952041    -0.40200
C1475       C  0.10301649  0.63631876  0.45743863    -0.12500
C1476       C  0.10698271  0.63852108  0.42555718     0.04500
C1477       C  0.12640430  0.65372742  0.41467071    -0.07800
C1478       C  0.13855316  0.66927828  0.43540925    -0.08500
C1479       C  0.13255739  0.66898108  0.46691341    -0.03100
C1480       C  0.11577597  0.65116209  0.47824079     0.03800
N1481       N  0.10867145  0.65047222  0.51009381     0.66300
H1482       H  0.08821215  0.62477249  0.46609600     0.15200
H1483       H  0.15166651  0.68265012  0.42659953     0.14900
N1484       N  0.13205689  0.65564509  0.38238751     0.74000
O1485       O  0.08677356  0.65583960  0.51768850    -0.39500
O1486       O  0.12687079  0.63693107  0.02381259    -0.39400
O1487       O  0.13284337  0.67650513  0.36940380    -0.40100
O1488       O  0.13982254  0.63698344  0.36802299    -0.40200
C1489       C  0.03911488  0.69266588  0.06664186    -0.12500
C1490       C  0.04302572  0.67429946  0.08885863     0.04500
C1491       C  0.06723113  0.66946220  0.09908430    -0.07800
C1492       C  0.08704494  0.68283149  0.08677222    -0.08500
C1493       C  0.08345566  0.70061954  0.06346360    -0.03100
C1494       C  0.05897748  0.70540226  0.05315818     0.03800
N1495       N  0.05367597  0.72229137  0.02849753     0.66300
H1496       H  0.02053711  0.69618296  0.05837172     0.15200
H1497       H  0.10550413  0.67858995  0.09488763     0.14900
N1498       N  0.07200306  0.65105437  0.12203599     0.74000
O1499       O  0.05996354  0.71125466  0.49916667    -0.39500
O1500       O  0.03672111  0.73800559  0.03220280    -0.39400
O1501       O  0.08193490  0.63092761  0.11441028    -0.40100
O1502       O  0.06878242  0.65592359  0.15022922    -0.40200
C1503       C  0.16192445  0.79795129  0.42659249    -0.12500
C1504       C  0.17128106  0.77478270  0.43429251     0.04500
C1505       C  0.18534504  0.76143305  0.41270450    -0.07800
C1506       C  0.18817930  0.77085032  0.38276320    -0.08500
C1507       C  0.17678680  0.79310271  0.37403323    -0.03100
C1508       C  0.16482225  0.80742521  0.39688683     0.03800
N1509       N  0.15419291  0.83092872  0.39003029     0.66300
H1510       H  0.15156388  0.80842760  0.44354858     0.15200
H1511       H  0.19767450  0.75973466  0.36570869     0.14900
N1512       N  0.19502851  0.73752679  0.41990375     0.74000
O1513       O  0.13099257  0.83322367  0.38876830    -0.39500
O1514       O  0.16770383  0.84988561  0.38980075    -0.39400
O1515       O  0.18077453  0.72080289  0.42969593    -0.40100
O1516       O  0.21673037  0.73196540  0.41170958    -0.40200
C1517       C  0.17213172  0.73970479  0.14628266    -0.12500
C1518       C  0.16152624  0.75426828  0.12299982     0.04500
C1519       C  0.14633397  0.77429999  0.13132864    -0.07800
C1520       C  0.14263086  0.77989883  0.16218965    -0.08500
C1521       C  0.15368864  0.76597454  0.18570705    -0.03100
C1522       C  0.16853364  0.74548876  0.17755202     0.03800
N1523       N  0.18012752  0.73043704  0.20046124     0.66300
H1524       H  0.18366039  0.72411398  0.14020607     0.15200
H1525       H  0.13074562  0.79538545  0.16758114     0.14900
N1526       N  0.13338598  0.78852891  0.10877570     0.74000
O1527       O  0.17288297  0.70854882  0.20443786    -0.39500
O1528       O  0.20042370  0.73718265  0.21195963    -0.39400
O1529       O  0.11294157  0.78078192  0.09880350    -0.40100
O1530       O  0.13945356  0.81069983  0.10420632    -0.40200
C1531       C  0.42805694  0.80004696  0.45990484    -0.12500
C1532       C  0.40354664  0.80323895  0.46989738     0.04500
C1533       C  0.39292265  0.82699717  0.46805449    -0.07800
C1534       C  0.40670448  0.84667992  0.45612151    -0.08500
C1535       C  0.43101701  0.84334856  0.44530351    -0.03100
C1536       C  0.44169778  0.81959764  0.44736521     0.03800
N1537       N  0.46609129  0.81468121  0.43613985     0.66300
H1538       H  0.43658316  0.78203841  0.46099235     0.15200
H1539       H  0.39798116  0.86462733  0.45475508     0.14900
N1540       N  0.36812912  0.83157072  0.47803886     0.74000
O1541       O  0.48331127  0.81076579  0.45511376    -0.39500
O1542       O  0.46920936  0.80921378  0.40809604    -0.39400
O1543       O  0.37743136  0.83464843  0.02268298    -0.40100
O1544       O  0.35069934  0.83079539  0.45877508    -0.40200
C1545       C  0.35640197  0.72986400  0.37137898    -0.12500
C1546       C  0.34243037  0.74527865  0.39078150     0.04500
C1547       C  0.33291957  0.76756308  0.37876284    -0.07800
C1548       C  0.33893388  0.77484095  0.34864141    -0.08500
C1549       C  0.35420987  0.76024995  0.33011461    -0.03100
C1550       C  0.36247236  0.73729620  0.34120646     0.03800
N1551       N  0.37873297  0.72241966  0.32307288     0.66300
H1552       H  0.36420703  0.71290363  0.38038110     0.15200
H1553       H  0.33176666  0.79206490  0.33967952     0.14900
N1554       N  0.31723821  0.78302484  0.39696124     0.74000
O1555       O  0.40136318  0.72792469  0.32115984    -0.39500
O1556       O  0.37119493  0.70227080  0.31216623    -0.39400
O1557       O  0.32390782  0.80469298  0.40329125    -0.40100
O1558       O  0.29550910  0.77614998  0.40332651    -0.40200
C1559       C  0.36292453  0.79268884  0.08781651    -0.12500
C1560       C  0.35212340  0.77011044  0.08021005     0.04500
C1561       C  0.33828965  0.75715763  0.10251579    -0.07800
C1562       C  0.33581448  0.76682501  0.13226686    -0.08500
C1563       C  0.34761316  0.78894151  0.14060001    -0.03100
C1564       C  0.36073358  0.80227671  0.11763696     0.03800
N1565       N  0.37271460  0.82508365  0.12434852     0.66300
H1566       H  0.37363423  0.80266394  0.07065441     0.15200
H1567       H  0.32591764  0.75605639  0.14944548     0.14900
N1568       N  0.32895272  0.73303153  0.09631431     0.74000
O1569       O  0.39551273  0.82532204  0.13045876    -0.39500
O1570       O  0.36152862  0.84512762  0.11948596    -0.39400
O1571       O  0.34391757  0.71596585  0.08991429    -0.40100
O1572       O  0.30685538  0.72770829  0.10303823    -0.40200
C1573       C  0.23976225  0.70310140  0.99755903    -0.12500
C1574       C  0.23315971  0.71719865  0.02351987     0.04500
C1575       C  0.25024271  0.71258738  0.54210995    -0.07800
C1576       C  0.27495920  0.71033234  0.53236061    -0.08500
C1577       C  0.28108408  0.71100174  0.50089769    -0.03100
C1578       C  0.26458802  0.70161649  0.98783123     0.03800
N1579       N  0.27051083  0.68949751  0.95953903     0.66300
H1580       H  0.22549682  0.69464300  0.98366101     0.15200
H1581       H  0.28958532  0.71020066  0.54936295     0.14900
N1582       N  0.24483467  0.71418362  0.57451717     0.74000
O1583       O  0.28054627  0.66851218  0.96003863    -0.39500
O1584       O  0.26814354  0.70083176  0.93420757    -0.39400
O1585       O  0.25514256  0.69957246  0.59322745    -0.40100
O1586       O  0.23242444  0.73203666  0.58491571    -0.40200
C1587       C  0.54247019  0.69033926  0.18065505    -0.12500
C1588       C  0.54587946  0.66571547  0.17141361     0.04500
C1589       C  0.56985642  0.65534415  0.17374785    -0.07800
C1590       C  0.58925598  0.66934111  0.18564798    -0.08500
C1591       C  0.58561409  0.69345307  0.19634037    -0.03100
C1592       C  0.56193299  0.70416122  0.19313559     0.03800
N1593       N  0.55713203  0.72884644  0.20282113     0.66300
H1594       H  0.52437410  0.69881645  0.17900504     0.15200
H1595       H  0.60722121  0.66064837  0.18770453     0.14900
N1596       N  0.57504191  0.63044605  0.16508318     0.74000
O1597       O  0.56241474  0.74661107  0.18509156    -0.39500
O1598       O  0.54433331  0.73267031  0.22675182    -0.39400
O1599       O  0.59192434  0.62640086  0.14554530    -0.40100
O1600       O  0.56831196  0.61312929  0.18277643    -0.40200
C1601       C  0.42724144  0.70825308  0.17537725    -0.12500
C1602       C  0.43437019  0.68902266  0.19533950     0.04500
C1603       C  0.42988457  0.69148701  0.22738358    -0.07800
C1604       C  0.41826680  0.71280861  0.23859817    -0.08500
C1605       C  0.41049121  0.73146974  0.21832706    -0.03100
C1606       C  0.41538389  0.72930702  0.18652395     0.03800
N1607       N  0.40872639  0.74856478  0.16536056     0.66300
H1608       H  0.43061092  0.70685854  0.15075991     0.15200
H1609       H  0.41436937  0.71431389  0.26306124     0.14900
N1610       N  0.43678024  0.67256171  0.24877736     0.74000
O1611       O  0.41703187  0.77008252  0.16907666    -0.39500
O1612       O  0.39644339  0.74364394  0.14144640    -0.39400
O1613       O  0.45481294  0.67597545  0.26665842    -0.40100
O1614       O  0.42220883  0.65482136  0.25385497    -0.40200
C1615       C  0.37478928  0.66190460  0.07771852    -0.12500
C1616       C  0.38304324  0.66283487  0.04700789     0.04500
C1617       C  0.40322158  0.64803139  0.03804532    -0.07800
C1618       C  0.41674479  0.63540726  0.06047747    -0.08500
C1619       C  0.41056305  0.63731574  0.09181766    -0.03100
C1620       C  0.38828107  0.64908463  0.10022215     0.03800
N1621       N  0.38087304  0.65097405  0.13182483     0.66300
H1622       H  0.35903213  0.67277960  0.08474613     0.15200
H1623       H  0.43352197  0.62589810  0.05362246     0.14900
N1624       N  0.41218034  0.64819896  0.00696744     0.74000
O1625       O  0.38756540  0.66930728  0.14752199    -0.39500
O1626       O  0.36451997  0.63662382  0.14240096    -0.39400
O1627       O  0.43431356  0.65427424  0.00150010    -0.40100
O1628       O  0.39978685  0.63759931  0.98630208    -0.40200
C1629       C  0.42575356  0.32809290  0.09258222    -0.12500
C1630       C  0.43268185  0.34738101  0.07248580     0.04500
C1631       C  0.42800238  0.34486353  0.04053205    -0.07800
C1632       C  0.41648537  0.32340935  0.02957781    -0.08500
C1633       C  0.40881426  0.30480364  0.05009215    -0.03100
C1634       C  0.41369320  0.30713309  0.08177071     0.03800
N1635       N  0.40653387  0.28828172  0.10325744     0.66300
H1636       H  0.42920178  0.32944140  0.11715271     0.15200
H1637       H  0.41260520  0.32172109  0.00514023     0.14900
N1638       N  0.43454424  0.36385385  0.01899838     0.74000
O1639       O  0.41669074  0.26736132  0.10222887    -0.39500
O1640       O  0.39199296  0.29330408  0.12520261    -0.39400
O1641       O  0.45179012  0.36022791  0.99983522    -0.40100
O1642       O  0.42022306  0.38197558  0.01521834    -0.40200
C1643       C  0.37646728  0.36723745  0.18562582    -0.12500
C1644       C  0.38203159  0.36978581  0.21699437     0.04500
C1645       C  0.39712338  0.38945139  0.22662005    -0.07800
C1646       C  0.40974483  0.40344096  0.20443124    -0.08500
C1647       C  0.40664297  0.39874380  0.17289094    -0.03100
C1648       C  0.38802452  0.38218752  0.16344796     0.03800
N1649       N  0.38279217  0.37834417  0.13142364     0.66300
H1650       H  0.36441793  0.35244986  0.17822408     0.15200
H1651       H  0.42377553  0.41637138  0.21186350     0.14900
N1652       N  0.40261368  0.39306182  0.25855619     0.74000
O1653       O  0.38236252  0.35677818  0.12067875    -0.39500
O1654       O  0.37437069  0.39589309  0.11538241    -0.39400
O1655       O  0.42439567  0.38992582  0.26816680    -0.40100
O1656       O  0.38683876  0.40325823  0.27583233    -0.40200
C1657       C  0.44174717  0.50127512  0.14233095    -0.12500
C1658       C  0.45757638  0.49521171  0.11763989     0.04500
C1659       C  0.47226108  0.51387753  0.10408843    -0.07800
C1660       C  0.47241160  0.53744443  0.11673182    -0.08500
C1661       C  0.45766766  0.54320790  0.14233043    -0.03100
C1662       C  0.44153128  0.52525932  0.15457383     0.03800
N1663       N  0.42617260  0.53065702  0.18059349     0.66300
H1664       H  0.43048514  0.48711193  0.15312333     0.15200
H1665       H  0.48447770  0.55128513  0.10668725     0.14900
N1666       N  0.48747281  0.50905388  0.07770576     0.74000
O1667       O  0.40674710  0.54322036  0.17701506    -0.39500
O1668       O  0.43042133  0.52054317  0.20633129    -0.39400
O1669       O  0.47817227  0.50998354  0.05104716    -0.40100
O1670       O  0.51065069  0.50779159  0.08063990    -0.40200
C1671       C  0.61011879  0.68675568  0.45726420    -0.12500
C1672       C  0.58440918  0.68823702  0.45290791     0.04500
C1673       C  0.57210699  0.71013041  0.46153447    -0.07800
C1674       C  0.58559858  0.73002985  0.47330351    -0.08500
C1675       C  0.61146843  0.72896044  0.47640023    -0.03100
C1676       C  0.62364840  0.70671043  0.46873213     0.03800
N1677       N  0.64735416  0.70094982  0.98103805     0.66300
H1678       H  0.62006881  0.67023188  0.45074109     0.15200
H1679       H  0.57568880  0.74661682  0.47951716     0.14900
N1680       N  0.54592823  0.71259848  0.45840397     0.74000
O1681       O  0.65326442  0.69869492  0.00907722    -0.39500
O1682       O  0.66308861  0.69630542  0.96026518    -0.39400
O1683       O  0.53209981  0.70869053  0.48144687    -0.40100
O1684       O  0.53711403  0.72266949  0.43453323    -0.40200
C1685       C  0.62596925  0.65822227  0.35564657    -0.12500
C1686       C  0.60798621  0.64120629  0.34655931     0.04500
C1687       C  0.60512777  0.63579361  0.31505411    -0.07800
C1688       C  0.61866046  0.64915118  0.29295949    -0.08500
C1689       C  0.63504326  0.66779313  0.30199602    -0.03100
C1690       C  0.63950041  0.67154824  0.33360761     0.03800
N1691       N  0.65575836  0.69064520  0.34352979     0.66300
H1692       H  0.62787668  0.66282150  0.37986783     0.15200
H1693       H  0.61451293  0.64669024  0.26868733     0.14900
N1694       N  0.58630208  0.61919583  0.30512523     0.74000
O1695       O  0.64769383  0.70788834  0.36021528    -0.39500
O1696       O  0.67873154  0.68818395  0.33967986    -0.39400
O1697       O  0.56677081  0.62753836  0.29318128    -0.40100
O1698       O  0.59064253  0.59637129  0.30426295    -0.40200
C1699       C  0.47292870  0.68680037  0.44476712    -0.12500
C1700       C  0.46982400  0.66347955  0.43176567     0.04500
C1701       C  0.44579757  0.65430236  0.42702432    -0.07800
C1702       C  0.42524847  0.66851349  0.43549095    -0.08500
C1703       C  0.42832430  0.69141848  0.44992557    -0.03100
C1704       C  0.45250498  0.70058100  0.45445650     0.03800
N1705       N  0.45667626  0.72398647  0.46846649     0.66300
H1706       H  0.49136263  0.69414590  0.44796796     0.15200
H1707       H  0.40686120  0.66107301  0.43212622     0.14900
N1708       N  0.44202612  0.63081865  0.41307622     0.74000
O1709       O  0.46059547  0.72505189  0.49713935    -0.39500
O1710       O  0.46229368  0.74217349  0.45160300    -0.39400
O1711       O  0.43895030  0.61198713  0.42985831    -0.40100
O1712       O  0.43828779  0.62948841  0.38439927    -0.40200
C1713       C  0.54609631  0.60512438  0.02797788    -0.12500
C1714       C  0.52866163  0.59910360  0.00515667     0.04500
C1715       C  0.50386280  0.59447203  0.01429729    -0.07800
C1716       C  0.49694290  0.59693047  0.04528968    -0.08500
C1717       C  0.51422667  0.60390939  0.06744684    -0.03100
C1718       C  0.53900809  0.60752884  0.05891134     0.03800
N1719       N  0.55693186  0.61448222  0.08137383     0.66300
H1720       H  0.56518333  0.60873029  0.02171828     0.15200
H1721       H  0.47769968  0.59458872  0.05182789     0.14900
N1722       N  0.49435764  0.57334049  0.49567509     0.74000
O1723       O  0.56418525  0.59891961  0.10108895    -0.39500
O1724       O  0.56368902  0.63666822  0.08339468    -0.39400
O1725       O  0.49660490  0.55020040  0.49572256    -0.40100
O1726       O  0.47606028  0.58312987  0.48239728    -0.40200
C1727       C  0.51029505  0.63564617  0.29382215    -0.12500
C1728       C  0.50104127  0.62037286  0.31729605     0.04500
C1729       C  0.48352631  0.60195932  0.30959510    -0.07800
C1730       C  0.47679463  0.59853806  0.27858551    -0.08500
C1731       C  0.48762071  0.61286491  0.25516339    -0.03100
C1732       C  0.50397780  0.63201848  0.26313958     0.03800
N1733       N  0.51416096  0.64830467  0.24033491     0.66300
H1734       H  0.52283023  0.65059665  0.29914380     0.15200
H1735       H  0.46394992  0.58398824  0.27269818     0.14900
N1736       N  0.47291012  0.58619474  0.33261878     0.74000
O1737       O  0.49999607  0.66221132  0.22507045    -0.39500
O1738       O  0.53722463  0.65181182  0.23927182    -0.39400
O1739       O  0.45053721  0.58892907  0.34025224    -0.40100
O1740       O  0.48432038  0.56702233  0.34098241    -0.40200
C1741       C  0.47441854  0.35282081  0.32894586    -0.12500
C1742       C  0.46941312  0.37492974  0.34371521     0.04500
C1743       C  0.44462167  0.38254301  0.34791792    -0.07800
C1744       C  0.42542873  0.36726576  0.33733298    -0.08500
C1745       C  0.43050718  0.34544992  0.32109844    -0.03100
C1746       C  0.45554062  0.33832657  0.31690601     0.03800
N1747       N  0.46265011  0.31621091  0.30142523     0.66300
H1748       H  0.49348531  0.34715717  0.32568859     0.15200
H1749       H  0.40643366  0.37327128  0.34006830     0.14900
N1750       N  0.43850271  0.40548739  0.36250336     0.74000
O1751       O  0.46034468  0.31487110  0.27250277    -0.39500
O1752       O  0.47856814  0.30270522  0.31429424    -0.39400
O1753       O  0.44966236  0.42501733  0.35487178    -0.40100
O1754       O  0.41932233  0.40702548  0.37910148    -0.40200
C1755       C  0.53215142  0.41049272  0.21326547    -0.12500
C1756       C  0.51548521  0.42799414  0.20177757     0.04500
C1757       C  0.50863185  0.44810498  0.22032696    -0.07800
C1758       C  0.51730803  0.44947066  0.25079408    -0.08500
C1759       C  0.53317691  0.43124036  0.26282445    -0.03100
C1760       C  0.54109609  0.41193216  0.24334042     0.03800
N1761       N  0.55648657  0.39240169  0.25442927     0.66300
H1762       H  0.53759278  0.39497361  0.19908612     0.15200
H1763       H  0.51105162  0.46443689  0.26534166     0.14900
N1764       N  0.49152100  0.46617431  0.20935165     0.74000
O1765       O  0.54672945  0.37373616  0.26697996    -0.39500
O1766       O  0.57906869  0.39187981  0.24699779    -0.39400
O1767       O  0.46876091  0.46394443  0.21527489    -0.40100
O1768       O  0.49939003  0.48553173  0.19639273    -0.40200
C1769       C  0.52116152  0.43611338  0.47378882    -0.12500
C1770       C  0.50413388  0.42651304  0.45288376     0.04500
C1771       C  0.47930423  0.42318446  0.46197370    -0.07800
C1772       C  0.47236843  0.42790694  0.49262093    -0.08500
C1773       C  0.49043525  0.42439278  0.01413908    -0.03100
C1774       C  0.50519983  0.40407428  0.00568547     0.03800
N1775       N  0.51253022  0.38567814  0.02773592     0.66300
H1776       H  0.53992358  0.43986817  0.46633534     0.15200
H1777       H  0.45361923  0.42382252  0.49996664     0.14900
N1778       N  0.46139667  0.41342798  0.44108224     0.74000
O1779       O  0.49643510  0.37530524  0.04449972    -0.39500
O1780       O  0.53418248  0.37698827  0.02689641    -0.39400
O1781       O  0.46464334  0.39243900  0.42930383    -0.40100
O1782       O  0.44082757  0.42411229  0.43790856    -0.40200
C1783       C  0.57423037  0.50210246  0.39312724    -0.12500
C1784       C  0.56050275  0.49434273  0.36760141     0.04500
C1785       C  0.54708337  0.51161471  0.35019908    -0.07800
C1786       C  0.54589069  0.53602435  0.35984809    -0.08500
C1787       C  0.55790905  0.54365823  0.38685830    -0.03100
C1788       C  0.57315377  0.52672580  0.40284054     0.03800
N1789       N  0.58577917  0.53359269  0.43041329     0.66300
H1790       H  0.58428260  0.48870308  0.40684272     0.15200
H1791       H  0.53465923  0.54886196  0.34674391     0.14900
N1792       N  0.53315078  0.50414943  0.32385108     0.74000
O1793       O  0.57425392  0.53388464  0.45580677    -0.39500
O1794       O  0.60901489  0.53574272  0.43015642    -0.39400
O1795       O  0.51002471  0.50146389  0.32596870    -0.40100
O1796       O  0.54359515  0.50254084  0.29783288    -0.40200
C1797       C  0.59827550  0.21744973  0.03482813    -0.12500
C1798       C  0.61216054  0.23219624  0.05498046     0.04500
C1799       C  0.61297823  0.22599213  0.08661437    -0.07800
C1800       C  0.59993573  0.20548472  0.09751750    -0.08500
C1801       C  0.58650958  0.19038702  0.07738475    -0.03100
C1802       C  0.58577328  0.19641786  0.04571179     0.03800
N1803       N  0.57169685  0.18195870  0.02462887     0.66300
H1804       H  0.59743670  0.22207729  0.01047817     0.15200
H1805       H  0.60073891  0.20104593  0.12193928     0.14900
N1806       N  0.62626761  0.24079027  0.10818190     0.74000
O1807       O  0.55048871  0.18284988  0.51984340    -0.39500
O1808       O  0.58228990  0.16566219  0.00864773    -0.39400
O1809       O  0.61459732  0.25206644  0.12907031    -0.40100
O1810       O  0.64944228  0.23864267  0.11016574    -0.40200
C1811       C  0.62256451  0.38837359  0.47522338    -0.12500
C1812       C  0.63623872  0.36767780  0.46632676     0.04500
C1813       C  0.63879018  0.36219978  0.43475305    -0.07800
C1814       C  0.62574826  0.37602955  0.41287845    -0.08500
C1815       C  0.60989784  0.39506127  0.42209686    -0.03100
C1816       C  0.60923146  0.40206529  0.45336046     0.03800
N1817       N  0.59271294  0.42086935  0.46372736     0.66300
H1818       H  0.62014697  0.39235031  0.49956570     0.15200
H1819       H  0.62592426  0.37015845  0.38896832     0.14900
N1820       N  0.65204785  0.34085171  0.42494624     0.74000
O1821       O  0.57790512  0.41640593  0.48563826    -0.39500
O1822       O  0.59537678  0.44272108  0.45419163    -0.39400
O1823       O  0.64041812  0.32310830  0.41317425    -0.40100
O1824       O  0.67521072  0.34198795  0.42180402    -0.40200
C1825       C  0.56484781  0.33203542  0.07981414    -0.12500
C1826       C  0.58604031  0.34564339  0.07149029     0.04500
C1827       C  0.58619152  0.37134582  0.07713247    -0.07800
C1828       C  0.56550435  0.38262181  0.09027730    -0.08500
C1829       C  0.54412283  0.36923374  0.09799657    -0.03100
C1830       C  0.54403272  0.34352658  0.09293766     0.03800
N1831       N  0.52289601  0.32885063  0.10042929     0.66300
H1832       H  0.56425936  0.31235616  0.07577409     0.15200
H1833       H  0.56612900  0.40237665  0.09370208     0.14900
N1834       N  0.60654812  0.38675760  0.06828092     0.74000
O1835       O  0.50737511  0.32369346  0.07975896    -0.39500
O1836       O  0.52141345  0.31848679  0.12651568    -0.39400
O1837       O  0.60286717  0.40444162  0.04981932    -0.40100
O1838       O  0.62594530  0.38666264  0.08439753    -0.40200
C1839       C  0.76836284  0.32975340  0.48917584    -0.12500
C1840       C  0.78457196  0.31821572  0.51004298     0.04500
C1841       C  0.77637837  0.31454791  0.03701364    -0.07800
C1842       C  0.75094983  0.31516700  0.04275144    -0.08500
C1843       C  0.73430244  0.31884904  0.01860206    -0.03100
C1844       C  0.74283251  0.33024145  0.49503461     0.03800
N1845       N  0.72649203  0.34064768  0.47267678     0.66300
H1846       H  0.77535162  0.33726367  0.46761171     0.15200
H1847       H  0.74412196  0.31131871  0.06585705     0.14900
N1848       N  0.79268478  0.30923490  0.06199119     0.74000
O1849       O  0.71540487  0.36060145  0.47831043    -0.39500
O1850       O  0.72122674  0.32864494  0.44872051    -0.39400
O1851       O  0.79742978  0.32596135  0.08118113    -0.40100
O1852       O  0.79674408  0.28706012  0.06923744    -0.40200
C1853       C  0.93258875  0.23558142  0.46522733    -0.12500
C1854       C  0.90777339  0.23313986  0.47420318     0.04500
C1855       C  0.89691360  0.20947724  0.47493557    -0.07800
C1856       C  0.91092193  0.18886670  0.46633476    -0.08500
C1857       C  0.93496171  0.19160893  0.45461513    -0.03100
C1858       C  0.94601662  0.21517211  0.45469362     0.03800
N1859       N  0.97092114  0.21862346  0.44440234     0.66300
H1860       H  0.94125731  0.25359529  0.46513751     0.15200
H1861       H  0.90225526  0.17087545  0.46647959     0.14900
N1862       N  0.87116352  0.20628206  0.98200706     0.74000
O1863       O  0.97509054  0.22430105  0.41657111    -0.39500
O1864       O  0.98783020  0.22125275  0.46410782    -0.39400
O1865       O  0.85435760  0.21143505  0.96289148    -0.40100
O1866       O  0.86580626  0.19400377  0.00592411    -0.40200
C1867       C  0.89742019  0.39249714  0.04416815    -0.12500
C1868       C  0.88285635  0.37227799  0.05341756     0.04500
C1869       C  0.87878573  0.36814408  0.08510974    -0.07800
C1870       C  0.89097721  0.38249019  0.10690464    -0.08500
C1871       C  0.90774699  0.40066230  0.09774561    -0.03100
C1872       C  0.90983249  0.40681539  0.06623983     0.03800
N1873       N  0.92640176  0.42578431  0.05630865     0.66300
H1874       H  0.90105293  0.39568502  0.01984376     0.15200
H1875       H  0.88964563  0.37736491  0.13106465     0.14900
N1876       N  0.86506291  0.34733641  0.09561433     0.74000
O1877       O  0.94823795  0.42050946  0.04839433    -0.39500
O1878       O  0.91864322  0.44758447  0.05326753    -0.39400
O1879       O  0.87590415  0.33098830  0.11135935    -0.40100
O1880       O  0.84179458  0.34866942  0.09633518    -0.40200
C1881       C  0.95514728  0.33296586  0.44866575    -0.12500
C1882       C  0.93146894  0.34352291  0.44563246     0.04500
C1883       C  0.92901415  0.36564402  0.42850709    -0.07800
C1884       C  0.95011425  0.37749502  0.41703510    -0.08500
C1885       C  0.97384701  0.36762950  0.42151035    -0.03100
C1886       C  0.97625525  0.34482426  0.43698482     0.03800
N1887       N  0.00003221  0.33433005  0.44305782     0.66300
H1888       H  0.95756550  0.31602737  0.46165896     0.15200
H1889       H  0.94785310  0.39466788  0.40447260     0.14900
N1890       N  0.90533889  0.37649562  0.42264575     0.74000
O1891       O  0.01402974  0.34411694  0.46276317    -0.39500
O1892       O  0.00561198  0.31358913  0.43198071    -0.39400
O1893       O  0.90116293  0.39849002  0.43043972    -0.40100
O1894       O  0.88984586  0.36529538  0.40611514    -0.40200
C1895       C  0.64978061  0.30046352  0.14439292    -0.12500
C1896       C  0.67074336  0.29343887  0.12739370     0.04500
C1897       C  0.68840750  0.27789015  0.14149674    -0.07800
C1898       C  0.68444300  0.26919245  0.17174877    -0.08500
C1899       C  0.66268151  0.27509565  0.18792169    -0.03100
C1900       C  0.64530350  0.29109479  0.17400805     0.03800
N1901       N  0.62278926  0.29784330  0.18933095     0.66300
H1902       H  0.63582918  0.31211423  0.13388827     0.15200
H1903       H  0.69797954  0.25703767  0.18219085     0.14900
N1904       N  0.71027999  0.27058504  0.12534110     0.74000
O1905       O  0.60500691  0.28278496  0.19000457    -0.39500
O1906       O  0.61851526  0.32028725  0.19460413    -0.39400
O1907       O  0.72948242  0.28372556  0.12683023    -0.40100
O1908       O  0.71146850  0.24948980  0.11330070    -0.40200
C1909       C  0.68142530  0.24338487  0.39817200    -0.12500
C1910       C  0.66289094  0.24910606  0.37669383     0.04500
C1911       C  0.64103683  0.26079966  0.38669298    -0.07800
C1912       C  0.63841276  0.26721024  0.41758479    -0.08500
C1913       C  0.65731342  0.26285661  0.43900585    -0.03100
C1914       C  0.67890981  0.25041406  0.42924205     0.03800
N1915       N  0.69891796  0.24607213  0.45000860     0.66300
H1916       H  0.69828083  0.23443835  0.39055715     0.15200
H1917       H  0.62134585  0.27599284  0.42478098     0.14900
N1918       N  0.62126936  0.26638453  0.36578221     0.74000
O1919       O  0.70067558  0.22562402  0.46381320    -0.39500
O1920       O  0.71620695  0.26159278  0.45199930    -0.39400
O1921       O  0.61242910  0.24975352  0.34882410    -0.40100
O1922       O  0.61046952  0.28696607  0.36726261    -0.40200
C1923       C  0.61961429  0.14896124  0.23048552    -0.12500
C1924       C  0.63653245  0.16643345  0.21941213     0.04500
C1925       C  0.64234336  0.16731694  0.18774998    -0.07800
C1926       C  0.62854605  0.15309684  0.16708286    -0.08500
C1927       C  0.60910219  0.13817389  0.17790610    -0.03100
C1928       C  0.60578385  0.13484437  0.20996957     0.03800
N1929       N  0.58640776  0.11945656  0.22177463     0.66300
H1930       H  0.61504639  0.14829503  0.25486353     0.15200
H1931       H  0.63127257  0.15574250  0.14247327     0.14900
N1932       N  0.66072666  0.18408840  0.17634802     0.74000
O1933       O  0.58812084  0.09634369  0.21961564    -0.39500
O1934       O  0.56850135  0.12881862  0.23637965    -0.39400
O1935       O  0.68186660  0.18471278  0.18859795    -0.40100
O1936       O  0.65568837  0.19879561  0.15462067    -0.40200
C1937       C  0.56752606  0.15317783  0.34332704    -0.12500
C1938       C  0.54462210  0.16525767  0.34479318     0.04500
C1939       C  0.54310904  0.19023477  0.33568959    -0.07800
C1940       C  0.56416089  0.20222409  0.32403588    -0.08500
C1941       C  0.58708327  0.19014652  0.32270521    -0.03100
C1942       C  0.58881433  0.16552918  0.33310155     0.03800
N1943       N  0.61177754  0.15246068  0.33205494     0.66300
H1944       H  0.56894216  0.13405936  0.35047379     0.15200
H1945       H  0.56260101  0.22108645  0.31590513     0.14900
N1946       N  0.52014776  0.20330020  0.33665605     0.74000
O1947       O  0.62815834  0.15692081  0.35193664    -0.39500
O1948       O  0.61380412  0.13356486  0.31537048    -0.39400
O1949       O  0.51298161  0.21272262  0.36172713    -0.40100
O1950       O  0.50993610  0.20975684  0.31174452    -0.40200
C1951       C  0.58174342  0.29998166  0.30878179    -0.12500
C1952       C  0.60429957  0.30348855  0.29310072     0.04500
C1953       C  0.61339243  0.32783948  0.28966486    -0.07800
C1954       C  0.60060449  0.34754912  0.30292641    -0.08500
C1955       C  0.57904791  0.34392868  0.32058646    -0.03100
C1956       C  0.56938157  0.31977711  0.32294590     0.03800
N1957       N  0.54767856  0.31473593  0.34070436     0.66300
H1958       H  0.57436031  0.28154717  0.31169998     0.15200
H1959       H  0.60828999  0.36586855  0.30014755     0.14900
N1960       N  0.63582371  0.33311929  0.27325126     0.74000
O1961       O  0.52769377  0.31015259  0.32701675    -0.39500
O1962       O  0.54956389  0.31002059  0.36915959    -0.39400
O1963       O  0.63489428  0.34611883  0.24904622    -0.40100
O1964       O  0.65622134  0.33092755  0.28707061    -0.40200
C1965       C  0.85777525  0.23667864  0.12590210    -0.12500
C1966       C  0.84746058  0.25415388  0.14606801     0.04500
C1967       C  0.84118145  0.27770008  0.13463343    -0.07800
C1968       C  0.84674405  0.28381537  0.10415070    -0.08500
C1969       C  0.85883248  0.26716413  0.08485459    -0.03100
C1970       C  0.86379598  0.24307800  0.09536114     0.03800
N1971       N  0.87607196  0.22547700  0.07602435     0.66300
H1972       H  0.86283016  0.21858114  0.13448247     0.15200
H1973       H  0.84149487  0.30168547  0.09531538     0.14900
N1974       N  0.82921587  0.29560439  0.15367163     0.74000
O1975       O  0.89566177  0.23132024  0.06181853    -0.39500
O1976       O  0.86895686  0.20332976  0.07586447    -0.39400
O1977       O  0.84133071  0.31367712  0.16387134    -0.40100
O1978       O  0.80600623  0.29517663  0.15675223    -0.40200
C1979       C  0.85718399  0.30842433  0.37518319    -0.12500
C1980       C  0.84221480  0.29499670  0.39588024     0.04500
C1981       C  0.82793952  0.27515911  0.38450462    -0.07800
C1982       C  0.82999798  0.26839535  0.35341825    -0.08500
C1983       C  0.84629006  0.28090969  0.33366721    -0.03100
C1984       C  0.85935953  0.30149761  0.34436252     0.03800
N1985       N  0.87546663  0.31508502  0.32424948     0.66300
H1986       H  0.86817647  0.32379139  0.38313981     0.15200
H1987       H  0.82001538  0.25241427  0.34518037     0.14900
N1988       N  0.81218984  0.26100353  0.40434925     0.74000
O1989       O  0.86657694  0.32772898  0.30242004    -0.39500
O1990       O  0.89841913  0.31563968  0.32936803    -0.39400
O1991       O  0.78937036  0.26578801  0.40550553    -0.40100
O1992       O  0.82014275  0.24126046  0.41620356    -0.40200
C1993       C  0.77545091  0.23477125  0.28141667    -0.12500
C1994       C  0.78316936  0.22142446  0.25557500     0.04500
C1995       C  0.76629200  0.20617942  0.24009841    -0.07800
C1996       C  0.74147289  0.20550986  0.24982574    -0.08500
C1997       C  0.73349247  0.21995987  0.27483495    -0.03100
C1998       C  0.75094660  0.23394187  0.29139131     0.03800
N1999       N  0.74391148  0.24773880  0.31811292     0.66300
H2000       H  0.78851406  0.24627407  0.29366418     0.15200
H2001       H  0.72817425  0.19499736  0.23665401     0.14900
N2002       N  0.77357969  0.19323064  0.21291131     0.74000
O2003       O  0.73756958  0.23660822  0.34254224    -0.39500
O2004       O  0.74645675  0.27085324  0.31833465    -0.39400
O2005       O  0.78257867  0.17184918  0.21509865    -0.40100
O2006       O  0.77309880  0.20397821  0.18701275    -0.40200
C2007       C  0.87503975  0.17900578  0.34038744    -0.12500
C2008       C  0.87698308  0.17397937  0.30878617     0.04500
C2009       C  0.88936878  0.15239666  0.29916597    -0.07800
C2010       C  0.90375464  0.13934218  0.32058626    -0.08500
C2011       C  0.90425069  0.14637473  0.35169450    -0.03100
C2012       C  0.88818073  0.16510100  0.36205339     0.03800
N2013       N  0.88744040  0.17223057  0.39386015     0.66300
H2014       H  0.86486978  0.19509986  0.34801878     0.15200
H2015       H  0.91578738  0.12469340  0.31262407     0.14900
N2016       N  0.88932056  0.14492285  0.26746457     0.74000
O2017       O  0.88799207  0.19475563  0.40097838    -0.39500
O2018       O  0.88227475  0.15641629  0.41434307    -0.39400
O2019       O  0.90941488  0.14070569  0.25353951    -0.40100
O2020       O  0.86912807  0.13963123  0.25455034    -0.40200
C2021       C  0.96887958  0.17469841  0.21374131    -0.12500
C2022       C  0.97026501  0.17116283  0.18183337     0.04500
C2023       C  0.95202449  0.18146208  0.16259458    -0.07800
C2024       C  0.93215781  0.19439465  0.17567386    -0.08500
C2025       C  0.93062114  0.19797713  0.20777130    -0.03100
C2026       C  0.94970263  0.18847162  0.22682051     0.03800
N2027       N  0.94991065  0.19239074  0.25948467     0.66300
H2028       H  0.98311575  0.16711384  0.22858837     0.15200
H2029       H  0.91782619  0.20154898  0.16066943     0.14900
N2030       N  0.95284692  0.17791076  0.12992984     0.74000
O2031       O  0.94777022  0.17425174  0.27764061    -0.39500
O2032       O  0.95757683  0.21269164  0.26983653    -0.39400
O2033       O  0.94263595  0.15928336  0.11820559    -0.40100
O2034       O  0.96135340  0.19465769  0.11259361    -0.40200
C2035       C  0.89412611  0.33199883  0.22543876    -0.12500
C2036       C  0.90709293  0.30993493  0.23068461     0.04500
C2037       C  0.93275500  0.30936512  0.22443102    -0.07800
C2038       C  0.94439450  0.33006835  0.21142623    -0.08500
C2039       C  0.93114550  0.35182815  0.20506691    -0.03100
C2040       C  0.90578959  0.35282933  0.21313293     0.03800
N2041       N  0.89123286  0.37448681  0.20811608     0.66300
H2042       H  0.87452011  0.33315329  0.23051507     0.15200
H2043       H  0.96394737  0.32896146  0.20601175     0.14900
N2044       N  0.94725364  0.28789704  0.23067554     0.74000
O2045       O  0.87351696  0.37387126  0.18925298    -0.39500
O2046       O  0.89261980  0.39207946  0.22697476    -0.39400
O2047       O  0.95484212  0.27470159  0.20867731    -0.40100
O2048       O  0.95517291  0.28399777  0.25763629    -0.40200
O2049       O  0.88935258  0.20981890  0.70234737    -0.82000
C2050       C  0.85616361  0.26813516  0.80311986     0.97400
O2051       O  0.87812497  0.26233296  0.79646449    -0.71100
O2052       O  0.88148948  0.21430447  0.79195827    -0.74700
Al2053     Al  0.89178765  0.24060910  0.76638342     1.49000
C2054       C  0.87672216  0.19283217  0.78261541     0.92600
O2055       O  0.82654627  0.20700753  0.74212406    -0.80900
O2056       O  0.84810247  0.26543701  0.69752543    -0.74500
Al2057     Al  0.85819523  0.21031726  0.72336090     1.90100
O2058       O  0.81491609  0.24561671  0.73837086    -0.73600
O2059       O  0.87019767  0.28860262  0.74187827    -0.73400
O2060       O  0.83907072  0.26536723  0.78381969    -0.79100
O2061       O  0.90453732  0.26723354  0.74269149    -0.77300
O2062       O  0.86485319  0.23827159  0.74332865    -1.13400
O2063       O  0.91198639  0.21939773  0.74209964    -0.72600
C2064       C  0.91012366  0.21018659  0.71558070     0.98100
C2065       C  0.81013523  0.22336700  0.74412083     0.94500
Al2066     Al  0.84465718  0.26406728  0.74050854     1.55600
O2067       O  0.87014971  0.18899608  0.75513407    -0.77200
C2068       C  0.89337654  0.28732641  0.73803923     0.98700
C2069       C  0.84591265  0.24815909  0.67845456     0.93600
O2070       O  0.84514269  0.22597256  0.68733179    -0.82500
O2071       O  0.63097328  0.20151755  0.81919755    -0.82000
C2072       C  0.66086260  0.26310422  0.71924924     0.97400
O2073       O  0.63924219  0.25580954  0.72561187    -0.71100
O2074       O  0.63627673  0.20797214  0.73031910    -0.74700
Al2075     Al  0.62577595  0.23400557  0.75596129     1.49000
C2076       C  0.64218998  0.18666366  0.73929948     0.92600
O2077       O  0.69324374  0.20373559  0.77844691    -0.80900
O2078       O  0.66621593  0.25990469  0.82483179    -0.74500
Al2079     Al  0.66156369  0.20458386  0.79794175     1.90100
O2080       O  0.70247472  0.24238966  0.78665896    -0.73600
O2081       O  0.64564429  0.28285695  0.77884419    -0.73400
O2082       O  0.67812033  0.26097412  0.73873361    -0.79100
O2083       O  0.61213800  0.26050162  0.77921008    -0.77300
O2084       O  0.65294410  0.23246070  0.77861578    -1.13400
O2085       O  0.60645715  0.21245104  0.78130800    -0.72600
C2086       C  0.60980020  0.20221766  0.80716772     0.98100
C2087       C  0.70895718  0.22079274  0.77983949     0.94500
Al2088     Al  0.67172421  0.25922411  0.78209475     1.55600
O2089       O  0.65033820  0.18289513  0.76618006    -0.77200
C2090       C  0.62260631  0.28107827  0.78267003     0.98700
C2091       C  0.66900366  0.24244636  0.84379477     0.93600
O2092       O  0.67375517  0.22079654  0.83466442    -0.82500
O2093       O  0.87926556  0.29416307  0.55037258    -0.82000
C2094       C  0.84694379  0.29972308  0.92894166     0.97400
O2095       O  0.83801605  0.28516627  0.94892350    -0.71100
O2096       O  0.87363001  0.25880441  0.97232871    -0.74700
Al2097     Al  0.84869845  0.27828706  0.99037009     1.49000
C2098       C  0.89466062  0.25466250  0.98345321     0.92600
O2099       O  0.91528286  0.31255268  0.97881570    -0.80900
O2100       O  0.85862555  0.35128100  0.51489855    -0.74500
Al2101     Al  0.89521645  0.30345552  0.51338761     1.90100
O2102       O  0.89184556  0.34379950  0.96578262    -0.73600
O2103       O  0.82375039  0.32918101  0.98292837    -0.73400
O2104       O  0.85775272  0.31918807  0.93707323    -0.79100
O2105       O  0.82143417  0.29426611  0.00834416    -0.77300
O2106       O  0.86799915  0.30482090  0.99362763    -1.13400
O2107       O  0.85498607  0.26583378  0.53056726    -0.72600
C2108       C  0.86470494  0.27619908  0.55355150     0.98100
C2109       C  0.91227414  0.33249038  0.96418298     0.94500
Al2110     Al  0.85891569  0.33338954  0.97649980     1.55600
O2111       O  0.90403753  0.26928816  0.00274958    -0.77200
C2112       C  0.81168884  0.31400621  0.99931690     0.98700
C2113       C  0.87795673  0.35261535  0.53095377     0.93600
O2114       O  0.89471144  0.33651035  0.52871810    -0.82500
O2115       O  0.63832385  0.28898849  0.97325138    -0.82000
C2116       C  0.67124621  0.29970073  0.59513082     0.97400
O2117       O  0.68111481  0.28536321  0.57565035    -0.71100
O2118       O  0.64715422  0.25716687  0.55222267    -0.74700
Al2119     Al  0.67140601  0.27760194  0.53397650     1.49000
C2120       C  0.62567634  0.25282635  0.54270184     0.92600
O2121       O  0.60331684  0.31023974  0.54459073    -0.80900
O2122       O  0.65849182  0.34860065  0.50730493    -0.74500
Al2123     Al  0.62248841  0.29992646  0.51016436     1.90100
O2124       O  0.62569528  0.34251983  0.55537084    -0.73600
O2125       O  0.69401328  0.32915193  0.54186134    -0.73400
O2126       O  0.65952825  0.31859565  0.58640695    -0.79100
O2127       O  0.69826524  0.29471643  0.51627112    -0.77300
O2128       O  0.65095793  0.30317141  0.53006484    -1.13400
O2129       O  0.66600855  0.26416747  0.99301527    -0.72600
C2130       C  0.65401517  0.27204503  0.97005311     0.98100
C2131       C  0.60554667  0.33087246  0.55751176     0.94500
Al2132     Al  0.65888442  0.33227383  0.54639663     1.55600
O2133       O  0.61566869  0.26671104  0.52295938    -0.77200
C2134       C  0.70705033  0.31454018  0.52623966     0.98700
C2135       C  0.64177226  0.34861357  0.98757970     0.93600
O2136       O  0.62484602  0.33262738  0.99045498    -0.82500
O2137       O  0.53120486  0.39816800  0.91661726    -0.82000
C2138       C  0.53873201  0.43006521  0.79512778     0.97400
O2139       O  0.52445712  0.44019181  0.81452496    -0.71100
O2140       O  0.49658369  0.40609599  0.83917076    -0.74700
Al2141     Al  0.51726211  0.43055820  0.85650160     1.49000
C2142       C  0.49249291  0.38495702  0.85003238     0.92600
O2143       O  0.54982990  0.36321946  0.84561727    -0.80900
O2144       O  0.58933810  0.41771476  0.88174422    -0.74500
Al2145     Al  0.54045639  0.38218900  0.88035128     1.90100
O2146       O  0.58215261  0.38553216  0.83343062    -0.73600
O2147       O  0.56925683  0.45384902  0.84844480    -0.73400
O2148       O  0.55837063  0.41963008  0.80361651    -0.79100
O2149       O  0.53428888  0.45743792  0.87363245    -0.77300
O2150       O  0.54327331  0.41052376  0.86002011    -1.13400
O2151       O  0.50482462  0.42483719  0.89758146    -0.72600
C2152       C  0.51423979  0.41377106  0.92044091     0.98100
C2153       C  0.57038023  0.36539500  0.83203274     0.94500
Al2154     Al  0.57233249  0.41869364  0.84311366     1.55600
O2155       O  0.50682637  0.37546661  0.86959280    -0.77200
C2156       C  0.55456994  0.46630625  0.86483524     0.98700
C2157       C  0.58989141  0.39850955  0.89831257     0.93600
O2158       O  0.57334044  0.38220411  0.89617220    -0.82500
O2159       O  0.53176671  0.63747156  0.85192643    -0.82000
C2160       C  0.53605667  0.60074188  0.97214656     0.97400
O2161       O  0.52188524  0.59249228  0.95144016    -0.71100
O2162       O  0.49494431  0.62736206  0.92673959    -0.74700
Al2163     Al  0.51618950  0.60318254  0.90979005     1.49000
C2164       C  0.49180945  0.64893694  0.91674028     0.92600
O2165       O  0.55038916  0.66958054  0.92494268    -0.80900
O2166       O  0.58916080  0.61530920  0.88729535    -0.74500
Al2167     Al  0.54099962  0.65186721  0.88924830     1.90100
O2168       O  0.58169324  0.64597234  0.93693385    -0.73600
O2169       O  0.56752050  0.57860277  0.91864634    -0.73400
O2170       O  0.55607297  0.61134836  0.96495189    -0.79100
O2171       O  0.53328234  0.57648294  0.89218792    -0.77300
O2172       O  0.54265591  0.62284685  0.90823641    -1.13400
O2173       O  0.50518606  0.61011032  0.86896802    -0.72600
C2174       C  0.51476397  0.62213543  0.84703034     0.98100
C2175       C  0.57083533  0.66658522  0.93831014     0.94500
Al2176     Al  0.57114342  0.61345591  0.92560613     1.55600
O2177       O  0.50774851  0.65907767  0.89974286    -0.77200
C2178       C  0.55308640  0.56690673  0.90124814     0.98700
C2179       C  0.59002595  0.63477739  0.87114392     0.93600
O2180       O  0.57382718  0.65133054  0.87387195    -0.82500
O2181       O  0.44109864  0.39509669  0.57012998    -0.82000
C2182       C  0.50247200  0.41955852  0.67122628     0.97400
O2183       O  0.49537433  0.39805018  0.66420377    -0.71100
O2184       O  0.44733302  0.39653189  0.65932187    -0.74700
Al2185     Al  0.47306444  0.38632696  0.63304091     1.49000
C2186       C  0.42598072  0.40300815  0.65114463     0.92600
O2187       O  0.44503527  0.45571139  0.61383948    -0.80900
O2188       O  0.50077809  0.42842483  0.56608804    -0.74500
Al2189     Al  0.44480002  0.42449592  0.59305201     1.90100
O2190       O  0.48426763  0.46275396  0.60584927    -0.73600
O2191       O  0.52286941  0.40501995  0.61068550    -0.73400
O2192       O  0.50131184  0.43690865  0.65187327    -0.79100
O2193       O  0.49898097  0.37271030  0.60880982    -0.77300
O2194       O  0.47242945  0.41417818  0.61165218    -1.13400
O2195       O  0.45107620  0.36892718  0.60669875    -0.72600
C2196       C  0.44165319  0.37345575  0.58064562     0.98100
C2197       C  0.46305753  0.47049903  0.61272205     0.94500
Al2198     Al  0.49994516  0.43188884  0.60881642     1.55600
O2199       O  0.42227626  0.41249342  0.62477565    -0.77200
C2200       C  0.51994296  0.38240229  0.60522457     0.98700
C2201       C  0.48384824  0.43410916  0.54750651     0.93600
O2202       O  0.46181187  0.43748338  0.55689022    -0.82500
O2203       O  0.44674271  0.64882459  0.69542223    -0.82000
C2204       C  0.50461461  0.61329027  0.59589999     0.97400
O2205       O  0.49881146  0.63559862  0.60038468    -0.71100
O2206       O  0.45061592  0.63921736  0.60603052    -0.74700
Al2207     Al  0.47710849  0.65062070  0.63018993     1.49000
C2208       C  0.42908089  0.63508915  0.61615473     0.92600
O2209       O  0.44560884  0.58582370  0.65689999    -0.80900
O2210       O  0.50330881  0.61299087  0.70119491    -0.74500
Al2211     Al  0.44768167  0.61762729  0.67552004     1.90100
O2212       O  0.48411984  0.57607316  0.66632750    -0.73600
O2213       O  0.52604301  0.63128220  0.65350411    -0.73400
O2214       O  0.50247180  0.59740054  0.61700146    -0.79100
O2215       O  0.50375616  0.66472610  0.65252178    -0.77300
O2216       O  0.47542479  0.62477046  0.65493106    -1.13400
O2217       O  0.45580810  0.67089704  0.65434934    -0.72600
C2218       C  0.44694170  0.66923361  0.68132842     0.98100
C2219       C  0.46293354  0.57027312  0.65669910     0.94500
Al2220     Al  0.50185348  0.60580678  0.65927468     1.55600
O2221       O  0.42554778  0.62891522  0.64396599    -0.77200
C2222       C  0.52414203  0.65418558  0.65759565     0.98700
C2223       C  0.48604616  0.61045028  0.72051405     0.93600
O2224       O  0.46422696  0.60551889  0.71198001    -0.82500
O2225       O  0.38508663  0.70074467  0.94717079    -0.82000
C2226       C  0.35332044  0.76493508  0.54809172     0.97400
O2227       O  0.37516294  0.75878497  0.54141511    -0.71100
O2228       O  0.37891362  0.71033238  0.53987480    -0.74700
Al2229     Al  0.38855283  0.73593851  0.51248634     1.49000
C2230       C  0.37459533  0.68848942  0.53150588     0.92600
O2231       O  0.32356249  0.70104988  0.99017209    -0.80900
O2232       O  0.34735739  0.75842725  0.94333312    -0.74500
Al2233     Al  0.35489506  0.70276664  0.96964091     1.90100
O2234       O  0.31378746  0.74000522  0.98473862    -0.73600
O2235       O  0.37024659  0.78111983  0.98801258    -0.73400
O2236       O  0.33597802  0.76130565  0.52929833    -0.79100
O2237       O  0.40387977  0.75883552  0.98777648    -0.77300
O2238       O  0.36347041  0.73055084  0.98910230    -1.13400
O2239       O  0.40998886  0.71129243  0.98470811    -0.72600
C2240       C  0.40647232  0.70184287  0.95857306     0.98100
C2241       C  0.30799000  0.71827682  0.99195133     0.94500
Al2242     Al  0.34424803  0.75717515  0.98665362     1.55600
O2243       O  0.36703260  0.68385541  0.50460485    -0.77200
C2244       C  0.39327451  0.77930383  0.98397979     0.98700
C2245       C  0.34368921  0.74122911  0.92442591     0.93600
O2246       O  0.34157403  0.71915003  0.93370835    -0.82500
O2247       O  0.12493453  0.70973904  0.56425855    -0.82000
C2248       C  0.16575556  0.76752488  0.96535522     0.97400
O2249       O  0.14312974  0.76252080  0.96946827    -0.71100
O2250       O  0.13676266  0.71492593  0.97469253    -0.74700
Al2251     Al  0.12560616  0.73915557  0.49877012     1.49000
C2252       C  0.13987867  0.69330688  0.98475257     0.92600
O2253       O  0.18895694  0.70507049  0.52819417    -0.80900
O2254       O  0.16508017  0.76457841  0.56955827    -0.74500
Al2255     Al  0.15669848  0.70914432  0.54529351     1.90100
O2256       O  0.20110637  0.74329160  0.53389755    -0.73600
O2257       O  0.14698951  0.78759460  0.52227487    -0.73400
O2258       O  0.18126116  0.76533359  0.98679936    -0.79100
O2259       O  0.11254704  0.76667058  0.52023479    -0.77300
O2260       O  0.15134288  0.73672737  0.52380476    -1.13400
O2261       O  0.10381037  0.71937297  0.52304330    -0.72600
C2262       C  0.10462013  0.71064135  0.55000641     0.98100
C2263       C  0.20584839  0.72104253  0.52812806     0.94500
Al2264     Al  0.17175699  0.76224026  0.52750451     1.55600
O2265       O  0.14522699  0.68721896  0.51388008    -0.77200
C2266       C  0.12371773  0.78661272  0.52535164     0.98700
C2267       C  0.16565011  0.74781248  0.58964117     0.93600
O2268       O  0.16855408  0.72551982  0.58189783    -0.82500
O2269       O  0.37453614  0.78810032  0.79768311    -0.82000
C2270       C  0.34820406  0.79919714  0.67299030     0.97400
O2271       O  0.33879538  0.78396020  0.69175402    -0.71100
O2272       O  0.37331108  0.75735344  0.71651225    -0.74700
Al2273     Al  0.34699354  0.77569137  0.73341609     1.49000
C2274       C  0.39389089  0.75310589  0.72884446     0.92600
O2275       O  0.41440131  0.81014751  0.73068617    -0.80900
O2276       O  0.35692932  0.84762200  0.76184855    -0.74500
Al2277     Al  0.39300410  0.79904618  0.76307452     1.90100
O2278       O  0.39157025  0.84133821  0.71588171    -0.73600
O2279       O  0.32299550  0.82723878  0.72653385    -0.73400
O2280       O  0.35904386  0.81816615  0.68267857    -0.79100
O2281       O  0.31842263  0.79113312  0.74899086    -0.77300
O2282       O  0.36598556  0.80198941  0.73997704    -1.13400
O2283       O  0.35095049  0.76131502  0.77399003    -0.72600
C2284       C  0.35951617  0.77036173  0.79854692     0.98100
C2285       C  0.41212867  0.83022939  0.71609181     0.94500
Al2286     Al  0.35820308  0.83111053  0.72313957     1.55600
O2287       O  0.40134953  0.76598337  0.75110395    -0.77200
C2288       C  0.30965960  0.81143369  0.74008328     0.98700
C2289       C  0.37432964  0.84742792  0.78111348     0.93600
O2290       O  0.39087181  0.83103913  0.78041642    -0.82500
O2291       O  0.13520586  0.79398274  0.72098927    -0.82000
C2292       C  0.17309396  0.79952871  0.84060604     0.97400
O2293       O  0.17996540  0.78420212  0.82039530    -0.71100
O2294       O  0.14307778  0.75886651  0.79825340    -0.74700
Al2295     Al  0.16823444  0.77787359  0.77947994     1.49000
C2296       C  0.12154087  0.75597172  0.78807927     0.92600
O2297       O  0.10324186  0.81474603  0.79387029    -0.80900
O2298       O  0.15927560  0.85070825  0.75522475    -0.74500
Al2299     Al  0.12074744  0.80428317  0.75817905     1.90100
O2300       O  0.12819006  0.84499980  0.80564921    -0.73600
O2301       O  0.19519039  0.82809486  0.78519875    -0.73400
O2302       O  0.16261082  0.81927330  0.83281998    -0.79100
O2303       O  0.19552742  0.79304223  0.76067502    -0.77300
O2304       O  0.14982347  0.80509135  0.77706316    -1.13400
O2305       O  0.16035953  0.76585228  0.73916137    -0.72600
C2306       C  0.14953796  0.77596315  0.71667381     0.98100
C2307       C  0.10721954  0.83472282  0.80782088     0.94500
Al2308     Al  0.16051082  0.83333788  0.79341008     1.55600
O2309       O  0.11217959  0.77121387  0.76948927    -0.77200
C2310       C  0.20626332  0.81253125  0.76854878     0.98700
C2311       C  0.13986430  0.85258930  0.73944180     0.93600
O2312       O  0.12253686  0.83711599  0.74215654    -0.82500
O2313       O  0.07450625  0.39201979  0.94359924    -0.82000
C2314       C  0.01174674  0.42482099  0.84705935     0.97400
O2315       O  0.01836486  0.40284179  0.85237804    -0.71100
O2316       O  0.06655958  0.40182014  0.85444523    -0.74700
Al2317     Al  0.04176760  0.38915831  0.88071964     1.49000
C2318       C  0.08827231  0.40661605  0.86298199     0.92600
O2319       O  0.07065395  0.45617366  0.90533636    -0.80900
O2320       O  0.01576131  0.42565809  0.95280476    -0.74500
Al2321     Al  0.07098972  0.42361873  0.92380989     1.90100
O2322       O  0.03198788  0.46323144  0.91683888    -0.73600
O2323       O  0.99274738  0.40617046  0.90639243    -0.73400
O2324       O  0.01367170  0.44111116  0.86767139    -0.79100
O2325       O  0.01677136  0.37378655  0.90516627    -0.77300
O2326       O  0.04301505  0.41512423  0.90503952    -1.13400
O2327       O  0.06491247  0.36989494  0.90317236    -0.72600
C2328       C  0.07447799  0.37161312  0.92957675     0.98100
C2329       C  0.05255475  0.47089308  0.90699265     0.94500
Al2330     Al  0.01579189  0.43276765  0.91055449     1.55600
O2331       O  0.09257378  0.41352516  0.89036462    -0.77200
C2332       C  0.99594473  0.38333904  0.91049503     0.98700
C2333       C  0.03319310  0.42938164  0.97143489     0.93600
O2334       O  0.05484113  0.43447775  0.96179906    -0.82500
O2335       O  0.07083872  0.65074016  0.82361251    -0.82000
C2336       C  0.00893493  0.61669728  0.92037897     0.97400
O2337       O  0.01552255  0.63877585  0.91595252    -0.71100
O2338       O  0.06372295  0.64134942  0.91237857    -0.74700
Al2339     Al  0.03801529  0.65330521  0.88704003     1.49000
C2340       C  0.08531110  0.63689487  0.90288616     0.92600
O2341       O  0.06751984  0.58676790  0.86211315    -0.80900
O2342       O  0.01263775  0.61711903  0.81412141    -0.74500
Al2343     Al  0.06756743  0.61917147  0.84327488     1.90100
O2344       O  0.02924126  0.57923081  0.84999655    -0.73600
O2345       O  0.98910363  0.63568237  0.86139484    -0.73400
O2346       O  0.01040918  0.60090318  0.89913536    -0.79100
O2347       O  0.01220621  0.66852137  0.86432154    -0.77300
O2348       O  0.03948258  0.62751139  0.86228809    -1.13400
O2349       O  0.06001113  0.67298840  0.86350329    -0.72600
C2350       C  0.07002533  0.67132252  0.83731873     0.98100
C2351       C  0.04958944  0.57186074  0.86063646     0.94500
Al2352     Al  0.01253925  0.60959157  0.85654489     1.55600
O2353       O  0.08905019  0.62945167  0.87573387    -0.77200
C2354       C  0.99150069  0.65876092  0.85941424     0.98700
C2355       C  0.03031698  0.61316114  0.79571299     0.93600
O2356       O  0.05175229  0.60795112  0.80560555    -0.82500
O2357       O  0.98651307  0.40059074  0.60226313    -0.82000
C2358       C  0.97792554  0.43647466  0.72193838     0.97400
O2359       O  0.99311842  0.44535003  0.70248438    -0.71100
O2360       O  0.01961866  0.40945539  0.67986785    -0.74700
Al2361     Al  0.00050189  0.43446279  0.66098174     1.49000
C2362       C  0.02257402  0.38780330  0.67039162     0.92600
O2363       O  0.96353452  0.36962451  0.67426709    -0.80900
O2364       O  0.92848254  0.42535047  0.63398128    -0.74500
Al2365     Al  0.97502895  0.38680138  0.63905603     1.90100
O2366       O  0.93216834  0.39377481  0.68391618    -0.73600
O2367       O  0.94973982  0.46081621  0.66654420    -0.73400
O2368       O  0.95783924  0.42701946  0.71324306    -0.79100
O2369       O  0.98519041  0.46183080  0.64222082    -0.77300
O2370       O  0.97348469  0.41581912  0.65766406    -1.13400
O2371       O  0.01348699  0.42686043  0.62046304    -0.72600
C2372       C  0.00487724  0.41444630  0.59827879     0.98100
C2373       C  0.94274087  0.37311355  0.68671305     0.94500
Al2374     Al  0.94456147  0.42606560  0.67323599     1.55600
O2375       O  0.00764409  0.37826592  0.65176041    -0.77200
C2376       C  0.96506500  0.47192930  0.64943230     0.98700
C2377       C  0.92756600  0.40605164  0.61784828     0.93600
O2378       O  0.94290092  0.38876089  0.62159264    -0.82500
O2379       O  0.99613279  0.64650560  0.65972994    -0.82000
C2380       C  0.97924008  0.60815462  0.54542219     0.97400
O2381       O  0.99748033  0.61315217  0.56241833    -0.71100
O2382       O  0.02176442  0.63773382  0.60510715    -0.74700
Al2383     Al  0.99823661  0.61127314  0.60571762     1.49000
C2384       C  0.01919504  0.66047642  0.59999065     0.92600
O2385       O  0.95061004  0.67612570  0.60400859    -0.80900
O2386       O  0.92188286  0.63153582  0.62610223    -0.74500
Al2387     Al  0.97314782  0.65818828  0.62938746     1.90100
O2388       O  0.93718671  0.64985726  0.56982504    -0.73600
O2389       O  0.94315840  0.58891078  0.61426832    -0.73400
O2390       O  0.95744832  0.60691424  0.55623458    -0.79100
O2391       O  0.98200443  0.58043538  0.60520695    -0.77300
O2392       O  0.97109814  0.62992898  0.60918517    -1.13400
O2393       O  0.00120749  0.60740129  0.64917978    -0.72600
C2394       C  0.00268910  0.62505370  0.66792605     0.98100
C2395       C  0.93910507  0.67172145  0.57937608     0.94500
Al2396     Al  0.94238859  0.62003632  0.59297085     1.55600
O2397       O  0.99844888  0.67062350  0.60334256    -0.77200
C2398       C  0.96072149  0.57365833  0.61325000     0.98700
C2399       C  0.92699600  0.64095272  0.65186214     0.93600
O2400       O  0.94832053  0.64905621  0.65742926    -0.82500
O2401       O  0.57099225  0.14851789  0.57682090    -0.82000
C2402       C  0.50991867  0.11745818  0.67595912     0.97400
O2403       O  0.51650472  0.13928086  0.66974451    -0.71100
O2404       O  0.56439106  0.13945202  0.66623403    -0.74700
Al2405     Al  0.53956687  0.15218184  0.64062290     1.49000
C2406       C  0.58584399  0.13376913  0.65736139     0.92600
O2407       O  0.56801996  0.08482425  0.61481550    -0.80900
O2408       O  0.51176502  0.11369951  0.57077267    -0.74500
Al2409     Al  0.56772614  0.11723970  0.59700138     1.90100
O2410       O  0.52867887  0.07756771  0.60811397    -0.73600
O2411       O  0.48987623  0.13524803  0.61697877    -0.73400
O2412       O  0.51131523  0.10092507  0.65578187    -0.79100
O2413       O  0.51443791  0.16737701  0.61686670    -0.77300
O2414       O  0.54013678  0.12586258  0.61682880    -1.13400
O2415       O  0.56278992  0.17101897  0.61737421    -0.72600
C2416       C  0.57201464  0.16885355  0.59076340     0.98100
C2417       C  0.55017608  0.06987494  0.61362422     0.94500
Al2418     Al  0.51269696  0.10819622  0.61312028     1.55600
O2419       O  0.58988541  0.12708804  0.62977487    -0.77200
C2420       C  0.49331738  0.15807210  0.61295556     0.98700
C2421       C  0.52866357  0.10921679  0.55155467     0.93600
O2422       O  0.55087828  0.10630496  0.56020311    -0.82500
O2423       O  0.57118198  0.89029086  0.69208193    -0.82000
C2424       C  0.51125554  0.92216332  0.59237073     0.97400
O2425       O  0.51736518  0.90013446  0.59819645    -0.71100
O2426       O  0.56547734  0.89889857  0.60260091    -0.74700
Al2427     Al  0.54002775  0.88674406  0.62798438     1.49000
C2428       C  0.58705170  0.90399338  0.61153575     0.92600
O2429       O  0.56973559  0.95335951  0.65241144    -0.80900
O2430       O  0.51317824  0.92516562  0.69777507    -0.74500
Al2431     Al  0.56884310  0.92139958  0.67131647     1.90100
O2432       O  0.53062948  0.96167563  0.66067186    -0.73600
O2433       O  0.49063381  0.90459159  0.65204901    -0.73400
O2434       O  0.51275558  0.93859706  0.61272026    -0.79100
O2435       O  0.51433881  0.87196346  0.65188653    -0.77300
O2436       O  0.54109412  0.91311025  0.65161569    -1.13400
O2437       O  0.56247923  0.86762991  0.65182465    -0.72600
C2438       C  0.57140189  0.86973795  0.67855466     0.98100
C2439       C  0.55193800  0.96839663  0.65227426     0.94500
Al2440     Al  0.51401059  0.93122017  0.65559199     1.55600
O2441       O  0.59100448  0.91065585  0.63903394    -0.77200
C2442       C  0.49353637  0.88175242  0.65670045     0.98700
C2443       C  0.53043015  0.92817582  0.71679999     0.93600
O2444       O  0.55221297  0.93316236  0.70790939    -0.82500
O2445       O  0.48589991  0.13933478  0.92018360    -0.82000
C2446       C  0.47905776  0.10323099  0.80137162     0.97400
O2447       O  0.49408228  0.09427658  0.82074184    -0.71100
O2448       O  0.52055686  0.12986146  0.84396701    -0.74700
Al2449     Al  0.50075760  0.10508964  0.86216997     1.49000
C2450       C  0.52349250  0.15162070  0.85309733     0.92600
O2451       O  0.46452412  0.16981919  0.84762968    -0.80900
O2452       O  0.42843925  0.11441090  0.88775729    -0.74500
Al2453     Al  0.47507987  0.15296855  0.88316358     1.90100
O2454       O  0.43289343  0.14615066  0.83767960    -0.73600
O2455       O  0.45018793  0.07856960  0.85609912    -0.73400
O2456       O  0.45880776  0.11255867  0.80960564    -0.79100
O2457       O  0.48532381  0.07789808  0.88057379    -0.77300
O2458       O  0.47373904  0.12383158  0.86488571    -1.13400
O2459       O  0.51256745  0.11238195  0.90263807    -0.72600
C2460       C  0.50353924  0.12461514  0.92466740     0.98100
C2461       C  0.44404875  0.16656961  0.83460622     0.94500
Al2462     Al  0.44500324  0.11357289  0.84900434     1.55600
O2463       O  0.50798837  0.16138560  0.87098471    -0.77200
C2464       C  0.46572677  0.06734982  0.87278995     0.98700
C2465       C  0.42723524  0.13370145  0.90379542     0.93600
O2466       O  0.44242828  0.15118369  0.90004007    -0.82500
O2467       O  0.48636863  0.89284112  0.84748863    -0.82000
C2468       C  0.48008860  0.92791933  0.96810302     0.97400
O2469       O  0.49539892  0.93584108  0.94811050    -0.71100
O2470       O  0.52234619  0.90126880  0.92293785    -0.74700
Al2471     Al  0.50177746  0.92609235  0.90609228     1.49000
C2472       C  0.52557122  0.87982482  0.91286564     0.89400
O2473       O  0.46697907  0.86028177  0.91995532    -0.80900
O2474       O  0.42944008  0.91570229  0.88221385    -0.74500
Al2475     Al  0.47670750  0.87811534  0.88448296     1.90100
O2476       O  0.43515255  0.88340038  0.93124577    -0.73600
O2477       O  0.45055303  0.95105558  0.91458372    -0.73400
O2478       O  0.46042987  0.91740159  0.95995381    -0.79100
O2479       O  0.48550905  0.95385262  0.88928638    -0.77300
O2480       O  0.47510447  0.90687810  0.90370991    -1.13400
O2481       O  0.51319603  0.91964550  0.86480759    -0.72600
C2482       C  0.50380765  0.90769473  0.84273930     0.98100
C2483       C  0.44625745  0.86287945  0.93285293     0.94500
Al2484     Al  0.44638321  0.91623259  0.92061849     1.55600
O2485       O  0.50999497  0.87014359  0.89515620    -0.77200
C2486       C  0.46580563  0.96342564  0.89886678     0.98700
C2487       C  0.42792174  0.89628455  0.86651796     0.93600
O2488       O  0.44379779  0.87931997  0.86899462    -0.82500
O2489       O  0.88883151  0.83435993  0.56738210    -0.82000
C2490       C  0.85369972  0.77739394  0.96616703     0.97400
O2491       O  0.87606781  0.78342142  0.97039799    -0.71100
O2492       O  0.88024517  0.83106862  0.97760724    -0.74700
Al2493     Al  0.88765015  0.80584091  0.50146611     1.49000
C2494       C  0.87499946  0.85190791  0.98861619     0.92600
O2495       O  0.82390284  0.83881923  0.53206975    -0.80900
O2496       O  0.84804755  0.77900001  0.57258368    -0.74500
Al2497     Al  0.85653008  0.83485994  0.54880932     1.90100
O2498       O  0.81236039  0.80028787  0.53685046    -0.73600
O2499       O  0.86708908  0.75691798  0.52523203    -0.73400
O2500       O  0.83799459  0.77854287  0.98768667    -0.79100
O2501       O  0.90135514  0.77827075  0.52279051    -0.77300
O2502       O  0.86203510  0.80759737  0.52694851    -1.13400
O2503       O  0.90914547  0.82584864  0.52509099    -0.72600
C2504       C  0.90894226  0.83384254  0.55231267     0.98100
C2505       C  0.80727886  0.82251385  0.53130831     0.94500
Al2506     Al  0.84189066  0.78181868  0.53042408     1.55600
O2507       O  0.86758796  0.85738850  0.51728039    -0.77200
C2508       C  0.89035196  0.75816077  0.52809516     0.98700
C2509       C  0.84685040  0.79532077  0.59300138     0.93600
O2510       O  0.84490905  0.81783000  0.58544253    -0.82500
O2511       O  0.63247458  0.82984790  0.94695270    -0.82000
C2512       C  0.66146736  0.77174710  0.55048448     0.97400
O2513       O  0.63950564  0.77759636  0.54376330    -0.71100
O2514       O  0.63436855  0.82557887  0.53829518    -0.74700
Al2515     Al  0.62546830  0.79868744  0.51298657     1.49000
C2516       C  0.63853260  0.84708689  0.52841297     0.92600
O2517       O  0.69354233  0.83023658  0.99082408    -0.80900
O2518       O  0.67049323  0.77332774  0.94254071    -0.74500
Al2519     Al  0.66254201  0.82830190  0.96970978     1.90100
O2520       O  0.70401035  0.79174374  0.98326314    -0.73600
O2521       O  0.64830440  0.74951617  0.98751908    -0.73400
O2522       O  0.67874411  0.77473065  0.53118012    -0.79100
O2523       O  0.61423326  0.77100197  0.98817401    -0.77300
O2524       O  0.65425331  0.80011947  0.98878878    -1.13400
O2525       O  0.60741827  0.81847012  0.98441951    -0.72600
C2526       C  0.61093709  0.82809628  0.95816066     0.98100
C2527       C  0.70939722  0.81319599  0.99194173     0.94500
Al2528     Al  0.67389823  0.77392447  0.98577509     1.55600
O2529       O  0.64938309  0.84976447  0.00042695    -0.77200
C2530       C  0.62515663  0.75073789  0.98436934     0.98700
C2531       C  0.67430212  0.79112656  0.92427469     0.93600
O2532       O  0.67683719  0.81284435  0.93419456    -0.82500
O2533       O  0.87925449  0.75107106  0.72468435    -0.82000
C2534       C  0.84071924  0.74205353  0.84343278     0.97400
O2535       O  0.83243652  0.75737456  0.82393663    -0.71100
O2536       O  0.86895252  0.78402971  0.80360326    -0.74700
Al2537     Al  0.84464611  0.76514459  0.78315255     1.49000
C2538       C  0.89041969  0.78829187  0.79377536     0.92600
O2539       O  0.91019841  0.73123186  0.79847779    -0.80900
O2540       O  0.85746121  0.69338118  0.75636107    -0.74500
Al2541     Al  0.89347445  0.74131006  0.76214683     1.90100
O2542       O  0.88648348  0.69934881  0.80788461    -0.73600
O2543       O  0.81993402  0.71378419  0.78638029    -0.73400
O2544       O  0.85088121  0.72244660  0.83475079    -0.79100
O2545       O  0.81804191  0.74967198  0.76317807    -0.77300
O2546       O  0.86402189  0.73872197  0.78008929    -1.13400
O2547       O  0.85296689  0.77829475  0.74296454    -0.72600
C2548       C  0.86403751  0.76835897  0.72040983     0.98100
C2549       C  0.90674272  0.71053115  0.81133981     0.94500
Al2550     Al  0.85426875  0.70966453  0.79514534     1.55600
O2551       O  0.90008545  0.77473217  0.77354653    -0.77200
C2552       C  0.80840570  0.72936170  0.77025873     0.98700
C2553       C  0.87795060  0.69231469  0.74238619     0.93600
O2554       O  0.89418565  0.70869151  0.74612669    -0.82500
O2555       O  0.63772413  0.74890531  0.79821422    -0.82000
C2556       C  0.66843431  0.73786791  0.67590928     0.97400
O2557       O  0.67815517  0.75287870  0.69451347    -0.71100
O2558       O  0.64338699  0.78009339  0.71728566    -0.74700
Al2559     Al  0.66855061  0.76140178  0.73581748     1.49000
C2560       C  0.62242819  0.78485379  0.72826478     0.92600
O2561       O  0.60144343  0.72772411  0.72880421    -0.80900
O2562       O  0.65752190  0.69040974  0.76578017    -0.74500
Al2563     Al  0.62094434  0.73846632  0.76271999     1.90100
O2564       O  0.62464363  0.69576381  0.71815686    -0.73600
O2565       O  0.69271060  0.71022049  0.73021849    -0.73400
O2566       O  0.65768745  0.71877526  0.68569487    -0.79100
O2567       O  0.69621134  0.74583479  0.75344104    -0.77300
O2568       O  0.64909642  0.73537099  0.74170047    -1.13400
O2569       O  0.66290501  0.77543725  0.77584572    -0.72600
C2570       C  0.65331041  0.76605493  0.79979742     0.98100
C2571       C  0.60436170  0.70718295  0.71570946     0.94500
Al2572     Al  0.65757015  0.70619347  0.72624776     1.55600
O2573       O  0.61358308  0.77188339  0.74994964    -0.77200
C2574       C  0.70546225  0.72586085  0.74452958     0.98700
C2575       C  0.63864759  0.68994695  0.78306482     0.93600
O2576       O  0.62185253  0.70605164  0.78053527    -0.82500
O2577       O  0.38833022  0.33040440  0.81609054    -0.82000
C2578       C  0.35645407  0.27138444  0.71656921     0.97400
O2579       O  0.37865145  0.27698300  0.72206757    -0.71100
O2580       O  0.38138010  0.32499176  0.72721491    -0.74700
Al2581     Al  0.39223184  0.29855479  0.75237628     1.49000
C2582       C  0.37521105  0.34616735  0.73645718     0.92600
O2583       O  0.32457565  0.32811453  0.77712058    -0.80900
O2584       O  0.35214252  0.27117241  0.82113589    -0.74500
Al2585     Al  0.35692252  0.32722258  0.79588756     1.90100
O2586       O  0.31606357  0.28934238  0.78470452    -0.73600
O2587       O  0.37271133  0.24920756  0.77502139    -0.73400
O2588       O  0.33997627  0.27270710  0.73697147    -0.79100
O2589       O  0.40600115  0.27195593  0.77566043    -0.77300
O2590       O  0.36541027  0.29977328  0.77589046    -1.13400
O2591       O  0.41145824  0.31995486  0.77681055    -0.72600
C2592       C  0.40917805  0.33013668  0.80268992     0.98100
C2593       C  0.30943760  0.31044027  0.77601305     0.94500
Al2594     Al  0.34672935  0.27294018  0.77925158     1.55600
O2595       O  0.36733661  0.34946506  0.76366024    -0.77200
C2596       C  0.39552689  0.25144320  0.78013049     0.98700
C2597       C  0.34882156  0.28761498  0.84096896     0.93600
O2598       O  0.34559352  0.30993048  0.83281463    -0.82500
O2599       O  0.12708547  0.33395050  0.70292682    -0.82000
C2600       C  0.15970170  0.27191379  0.80045989     0.97400
O2601       O  0.13787116  0.27903936  0.79559548    -0.71100
O2602       O  0.13734306  0.32738275  0.79196517    -0.74700
Al2603     Al  0.12453058  0.30197687  0.76669470     1.49000
C2604       C  0.14259432  0.34874972  0.78230780     0.92600
O2605       O  0.19186350  0.33105053  0.73877223    -0.80900
O2606       O  0.16304665  0.27507379  0.69458828    -0.74500
Al2607     Al  0.15893462  0.33057373  0.72175935     1.90100
O2608       O  0.19920953  0.29190130  0.73204864    -0.73600
O2609       O  0.14180205  0.25297093  0.74086638    -0.73400
O2610       O  0.17608398  0.27380605  0.77985397    -0.79100
O2611       O  0.10898689  0.27644450  0.74363866    -0.77300
O2612       O  0.15065231  0.30288227  0.74177408    -1.13400
O2613       O  0.10522339  0.32462802  0.74385996    -0.72600
C2614       C  0.10675423  0.33431035  0.71748949     0.98100
C2615       C  0.20687309  0.31323703  0.73810676     0.94500
Al2616     Al  0.16860242  0.27577637  0.73717084     1.55600
O2617       O  0.14934798  0.35234520  0.75463605    -0.77200
C2618       C  0.11874060  0.25579868  0.73801732     0.98700
C2619       C  0.16704905  0.29202652  0.67527278     0.93600
O2620       O  0.16949445  0.31416586  0.68410906    -0.82500
O2621       O  0.38039936  0.24463040  0.97232177    -0.82000
C2622       C  0.34513348  0.24247230  0.59171779     0.97400
O2623       O  0.33671956  0.25679943  0.57121209    -0.71100
O2624       O  0.37090510  0.28398878  0.54565117    -0.74700
Al2625     Al  0.34671388  0.26260264  0.52942149     1.49000
C2626       C  0.39239587  0.28751708  0.53539446     0.92600
O2627       O  0.41420720  0.23012376  0.54316595    -0.80900
O2628       O  0.35983650  0.19008717  0.50819577    -0.74500
Al2629     Al  0.39563928  0.23865355  0.50784348     1.90100
O2630       O  0.39154227  0.19842861  0.55664401    -0.73600
O2631       O  0.32338209  0.21111222  0.53978163    -0.73400
O2632       O  0.35654845  0.22308030  0.58447141    -0.79100
O2633       O  0.31972521  0.24519890  0.51301514    -0.77300
O2634       O  0.36690626  0.23655797  0.52769165    -1.13400
O2635       O  0.35484392  0.27244690  0.99087242    -0.72600
C2636       C  0.36514284  0.26190758  0.96824382     0.98100
C2637       C  0.41190673  0.20990466  0.55722917     0.94500
Al2638     Al  0.35842967  0.20811442  0.54580303     1.55600
O2639       O  0.40244082  0.27220025  0.51757646    -0.77200
C2640       C  0.31070324  0.22552107  0.52333928     0.98700
C2641       C  0.37975752  0.18668860  0.99262300     0.93600
O2642       O  0.39625972  0.20301744  0.99479679    -0.82500
O2643       O  0.14019379  0.24500699  0.54597291    -0.82000
C2644       C  0.17275667  0.23841811  0.92452147     0.97400
O2645       O  0.18110163  0.25370081  0.94379352    -0.71100
O2646       O  0.14462906  0.27987929  0.96505382    -0.74700
Al2647     Al  0.16970657  0.26145143  0.98472410     1.49000
C2648       C  0.12359290  0.28442724  0.97607993     0.92600
O2649       O  0.10399014  0.22753862  0.97332402    -0.80900
O2650       O  0.15983175  0.18752627  0.51081462    -0.74500
Al2651     Al  0.12381800  0.23586362  0.50950631     1.90100
O2652       O  0.12734299  0.19563913  0.96250003    -0.73600
O2653       O  0.19518682  0.21040602  0.98060895    -0.73400
O2654       O  0.16216324  0.21903002  0.93348857    -0.79100
O2655       O  0.19695503  0.24614440  0.00370274    -0.77300
O2656       O  0.15072245  0.23495003  0.98897550    -1.13400
O2657       O  0.16439859  0.27311360  0.52517395    -0.72600
C2658       C  0.15473778  0.26297992  0.54870900     0.98100
C2659       C  0.10700026  0.20711649  0.96000318     0.94500
Al2660     Al  0.16020067  0.20605676  0.97343746     1.55600
O2661       O  0.11467461  0.27104399  0.99726181    -0.77200
C2662       C  0.20697507  0.22608399  0.99625945     0.98700
C2663       C  0.14095184  0.18707614  0.52799044     0.93600
O2664       O  0.12413837  0.20306318  0.52537006    -0.82500
O2665       O  0.94356745  0.14800822  0.94751461    -0.82000
C2666       C  0.00297603  0.11808261  0.84612504     0.97400
O2667       O  0.99674194  0.13990914  0.85259505    -0.71100
O2668       O  0.94901743  0.14421127  0.85875799    -0.74700
Al2669     Al  0.97570561  0.15342942  0.88378257     1.49000
C2670       C  0.92771221  0.13804290  0.86770655     0.92600
O2671       O  0.94424604  0.08626388  0.90602632    -0.80900
O2672       O  0.00167965  0.11140265  0.95118993    -0.74500
Al2673     Al  0.94587323  0.11763406  0.92585598     1.90100
O2674       O  0.98301559  0.07628436  0.91283077    -0.73600
O2675       O  0.02463046  0.13213822  0.90512125    -0.73400
O2676       O  0.00095147  0.10089319  0.86566220    -0.79100
O2677       O  0.00281958  0.16587424  0.90640737    -0.77300
O2678       O  0.97378451  0.12599362  0.90607110    -1.13400
O2679       O  0.95515815  0.17281926  0.91005159    -0.72600
C2680       C  0.94530482  0.16939155  0.93615302     0.98100
C2681       C  0.96142975  0.07062175  0.90484225     0.94500
Al2682     Al  0.00028697  0.10663766  0.90865777     1.55600
O2683       O  0.92404831  0.12940537  0.89442952    -0.77200
C2684       C  0.02330235  0.15505653  0.90928221     0.98700
C2685       C  0.98433433  0.10937090  0.97053795     0.93600
O2686       O  0.96241693  0.10489085  0.96198117    -0.82500
O2687       O  0.94504889  0.89198334  0.82585247    -0.82000
C2688       C  0.00556603  0.92630658  0.92346165     0.97400
O2689       O  0.99876643  0.90437571  0.91865059    -0.71100
O2690       O  0.95044853  0.90228692  0.91483428    -0.74700
Al2691     Al  0.97626899  0.89011567  0.88982535     1.49000
C2692       C  0.92882819  0.90694628  0.90558202     0.92600
O2693       O  0.94538106  0.95552462  0.86243403    -0.80900
O2694       O  0.00246346  0.92790415  0.81780930    -0.74500
Al2695     Al  0.94695705  0.92336574  0.84502686     1.90100
O2696       O  0.98417061  0.96515840  0.85416448    -0.73600
O2697       O  0.02536735  0.90845163  0.86460174    -0.73400
O2698       O  0.00317819  0.94266279  0.90286854    -0.79100
O2699       O  0.00244870  0.87532444  0.86696468    -0.77300
O2700       O  0.97483325  0.91604296  0.86501859    -1.13400
O2701       O  0.95401519  0.87005672  0.86683324    -0.72600
C2702       C  0.94471415  0.87172567  0.84021407     0.98100
C2703       C  0.96233119  0.97140805  0.86103276     0.94500
Al2704     Al  0.00155420  0.93469649  0.86011374     1.55600
O2705       O  0.92494750  0.91306189  0.87779644    -0.77200
C2706       C  0.02320603  0.88530573  0.86222966     0.98700
C2707       C  0.98510772  0.92972432  0.79863846     0.93600
O2708       O  0.96326494  0.93446555  0.80751419    -0.82500
O2709       O  0.03291406  0.13999385  0.59913211    -0.82000
C2710       C  0.03566243  0.10660875  0.72108832     0.97400
O2711       O  0.02033607  0.09928485  0.70129769    -0.71100
O2712       O  0.99563995  0.13503769  0.67612407    -0.74700
Al2713     Al  0.01498816  0.10907506  0.65947067     1.49000
C2714       C  0.99244671  0.15597798  0.66430856     0.92600
O2715       O  0.04924804  0.17434664  0.67166048    -0.80900
O2716       O  0.08883289  0.11961876  0.63564690    -0.74500
Al2717     Al  0.04099924  0.15606393  0.63594978     1.90100
O2718       O  0.08044591  0.15089492  0.68534222    -0.73600
O2719       O  0.06661154  0.08340866  0.66610157    -0.73400
O2720       O  0.05600034  0.11591760  0.71290157    -0.79100
O2721       O  0.03041388  0.08058419  0.64374936    -0.77300
O2722       O  0.04218755  0.12753117  0.65633066    -1.13400
O2723       O  0.00432529  0.11524774  0.61793217    -0.72600
C2724       C  0.01547630  0.12487021  0.59515355     0.98100
C2725       C  0.06885825  0.17117888  0.68697239     0.94500
Al2726     Al  0.07057409  0.11807174  0.67360324     1.55600
O2727       O  0.00712088  0.16403036  0.64409251    -0.77200
C2728       C  0.05066284  0.07111998  0.65160769     0.98700
C2729       C  0.09072164  0.13928419  0.62022484     0.93600
O2730       O  0.07448617  0.15584926  0.62226696    -0.82500
O2731       O  0.03153517  0.89835747  0.66819548    -0.82000
C2732       C  0.03911870  0.93296516  0.54716151     0.97400
O2733       O  0.02365271  0.94129656  0.56647257    -0.71100
O2734       O  0.99843797  0.90460794  0.58928632    -0.74700
Al2735     Al  0.01647564  0.93033522  0.60792993     1.49000
C2736       C  0.99523032  0.88331979  0.60009626     0.92600
O2737       O  0.05449956  0.86606817  0.59672488    -0.80900
O2738       O  0.08887223  0.92298268  0.63471068    -0.74500
Al2739     Al  0.04287881  0.88371153  0.63167920     1.90100
O2740       O  0.08522017  0.89086624  0.58556694    -0.73600
O2741       O  0.06643219  0.95784704  0.60196005    -0.73400
O2742       O  0.05920789  0.92360226  0.55594155    -0.79100
O2743       O  0.03086265  0.95814314  0.62611585    -0.77300
O2744       O  0.04389411  0.91241939  0.61189006    -1.13400
O2745       O  0.00357743  0.92305025  0.64858279    -0.72600
C2746       C  0.01324454  0.91250395  0.67168304     0.98100
C2747       C  0.07488874  0.87003552  0.58321773     0.94500
Al2748     Al  0.07249753  0.92309163  0.59582181     1.55600
O2749       O  0.00984039  0.87454681  0.61992026    -0.77200
C2750       C  0.05043986  0.96891561  0.61810597     0.98700
C2751       C  0.09044774  0.90389302  0.65130639     0.93600
O2752       O  0.07534581  0.88628963  0.64848745    -0.82500
C2753       C  0.06671403  0.03730663  0.61826224    -0.12500
C2754       C  0.05465691  0.04480749  0.64537262     0.04500
C2755       C  0.04324071  0.02708579  0.66439299    -0.07800
C2756       C  0.04293732  0.00239524  0.65554697    -0.08500
C2757       C  0.05398245  0.99480247  0.62779285    -0.03100
C2758       C  0.06651390  0.01240898  0.60935058     0.03800
N2759       N  0.07728470  0.00569721  0.58040542     0.66300
H2760       H  0.07516862  0.05095370  0.60322421     0.15200
H2761       H  0.03357349  0.98912164  0.67027338     0.14900
N2762       N  0.03099371  0.03413141  0.69225490     0.74000
O2763       O  0.06372918  0.00316097  0.55697714    -0.39500
O2764       O  0.10049492  0.00486336  0.57748765    -0.39400
O2765       O  0.00769940  0.03341825  0.69379519    -0.40100
O2766       O  0.04344640  0.03754897  0.71643947    -0.40200
C2767       C  0.03461900  0.91486554  0.96457571    -0.12500
C2768       C  0.01734028  0.93181929  0.95317502     0.04500
C2769       C  0.00972348  0.95158541  0.97185029    -0.07800
C2770       C  0.01893089  0.95172298  0.50086541    -0.08500
C2771       C  0.03297356  0.93262316  0.51405040    -0.03100
C2772       C  0.04344960  0.91651039  0.99470543     0.03800
N2773       N  0.05936411  0.89744936  0.00589366     0.66300
H2774       H  0.04054838  0.89955964  0.95033700     0.15200
H2775       H  0.01380602  0.96756524  0.51461907     0.14900
N2776       N  0.99215725  0.96922457  0.96086559     0.74000
O2777       O  0.05012244  0.87820334  0.01763424    -0.39500
O2778       O  0.07405593  0.88655484  0.49962628    -0.39400
O2779       O  0.97007818  0.96846428  0.97036693    -0.40100
O2780       O  0.99932819  0.98718326  0.94452069    -0.40200
C2781       C  0.97989836  0.93909242  0.74227033    -0.12500
C2782       C  0.99059462  0.92487133  0.76583384     0.04500
C2783       C  0.00707563  0.90576961  0.75790783    -0.07800
C2784       C  0.01307804  0.90160757  0.72713084    -0.08500
C2785       C  0.00358597  0.91649321  0.70342905    -0.03100
C2786       C  0.98640520  0.93520447  0.71117185     0.03800
N2787       N  0.97594024  0.95081822  0.68801762     0.66300
H2788       H  0.96706692  0.95371220  0.74806720     0.15200
H2789       H  0.02564834  0.88662340  0.72192216     0.14900
N2790       N  0.01769840  0.89005894  0.78088989     0.74000
O2791       O  0.95586830  0.94482147  0.67533950    -0.39500
O2792       O  0.98469644  0.97209609  0.68357821    -0.39400
O2793       O  0.00456288  0.87368923  0.79365092    -0.40100
O2794       O  0.04083994  0.88979809  0.78455116    -0.40200
C2795       C  0.97916966  0.10568243  0.52406989    -0.12500
C2796       C  0.99661497  0.11048768  0.50069108     0.04500
C2797       C  0.02061984  0.11838304  0.50913941    -0.07800
C2798       C  0.02615884  0.12236851  0.54003165    -0.08500
C2799       C  0.00853000  0.11841951  0.56329582    -0.03100
C2800       C  0.98496045  0.10925648  0.55523769     0.03800
N2801       N  0.96635976  0.10442220  0.57805497     0.66300
H2802       H  0.96073542  0.09950186  0.51817132     0.15200
H2803       H  0.04455382  0.12881809  0.54576793     0.14900
N2804       N  0.01759840  0.14841161  0.98772212     0.74000
O2805       O  0.94605955  0.11584769  0.57681870    -0.39500
O2806       O  0.96795305  0.08530846  0.59464804    -0.39400
O2807       O  0.00426341  0.16445087  0.97474823    -0.40100
O2808       O  0.04081896  0.14985704  0.98539718    -0.40200
C2809       C  0.00321382  0.09411979  0.79777043    -0.12500
C2810       C  0.01319903  0.11310986  0.81551414     0.04500
C2811       C  0.03207347  0.12805170  0.80319135    -0.07800
C2812       C  0.04004622  0.12438510  0.77296052    -0.08500
C2813       C  0.02900377  0.10647661  0.75417994    -0.03100
C2814       C  0.01056389  0.09092107  0.76701062     0.03800
N2815       N  0.99882454  0.07208530  0.74934256     0.66300
H2816       H  0.98868390  0.08257946  0.80728454     0.15200
H2817       H  0.05408937  0.13661359  0.76369127     0.14900
N2818       N  0.04330771  0.14707110  0.82109521     0.74000
O2819       O  0.00063656  0.04997144  0.75819086    -0.39500
O2820       O  0.98163653  0.07790846  0.73107050    -0.39400
O2821       O  0.06514904  0.14428282  0.83063177    -0.40100
O2822       O  0.03355855  0.16818781  0.82189675    -0.40200
C2823       C  0.96972710  0.04037352  0.86417611    -0.12500
C2824       C  0.95749936  0.04593861  0.89184612     0.04500
C2825       C  0.94393063  0.02743072  0.90725453    -0.07800
C2826       C  0.94376626  0.00333444  0.89536385    -0.08500
C2827       C  0.95733009  0.99749465  0.86857175    -0.03100
C2828       C  0.96950089  0.01650108  0.85223125     0.03800
N2829       N  0.98182935  0.01172650  0.82355213     0.66300
H2830       H  0.97986937  0.05465146  0.85198614     0.15200
H2831       H  0.93468397  0.98880865  0.90839787     0.14900
N2832       N  0.93223381  0.03227962  0.93626937     0.74000
O2833       O  0.96968777  0.00379621  0.80083422    -0.39500
O2834       O  0.00420696  0.01773045  0.81994640    -0.39400
O2835       O  0.90921042  0.02927728  0.93929175    -0.40100
O2836       O  0.94524159  0.03669703  0.95974046    -0.40200
C2837       C  0.13961901  0.17695206  0.58273440    -0.12500
C2838       C  0.13773882  0.16856197  0.55238025     0.04500
C2839       C  0.12561551  0.14607128  0.54647125    -0.07800
C2840       C  0.11295006  0.13397556  0.57057102    -0.08500
C2841       C  0.11206815  0.14440995  0.60013195    -0.03100
C2842       C  0.12679713  0.16515682  0.60657597     0.03800
N2843       N  0.12624146  0.17633778  0.63637388     0.66300
H2844       H  0.14872393  0.19433378  0.58738220     0.15200
H2845       H  0.10140102  0.11823287  0.56531052     0.14900
N2846       N  0.12344757  0.13698676  0.51565620     0.74000
O2847       O  0.14250128  0.17058728  0.65592344    -0.39500
O2848       O  0.11313097  0.19525787  0.64070702    -0.39400
O2849       O  0.12904831  0.12759451  0.99886350    -0.40100
O2850       O  0.09530434  0.14959855  0.99955264    -0.40200
C2851       C  0.08917872  0.17122548  0.93248719    -0.12500
C2852       C  0.08624448  0.19548137  0.94306199     0.04500
C2853       C  0.06301789  0.20707860  0.93930437    -0.07800
C2854       C  0.04321785  0.19396018  0.92670834    -0.08500
C2855       C  0.04568064  0.16907831  0.91841937    -0.03100
C2856       C  0.06923166  0.15784554  0.92086693     0.03800
N2857       N  0.07307658  0.13246210  0.91350705     0.66300
H2858       H  0.10679804  0.16190330  0.93487324     0.15200
H2859       H  0.02549723  0.20310443  0.92469558     0.14900
N2860       N  0.05884242  0.23184710  0.94909826     0.74000
O2861       O  0.08593166  0.12687238  0.89019642    -0.39500
O2862       O  0.06841859  0.11616453  0.93359758    -0.39400
O2863       O  0.05901544  0.24908275  0.92944480    -0.40100
O2864       O  0.05069670  0.23019980  0.48575363    -0.40200
C2865       C  0.24162804  0.22565568  0.53285406    -0.12500
C2866       C  0.23302385  0.22178885  0.00549104     0.04500
C2867       C  0.24973150  0.20773858  0.98754183    -0.07800
C2868       C  0.27510041  0.20779617  0.99467350    -0.08500
C2869       C  0.28450955  0.22046678  0.51770935    -0.03100
C2870       C  0.26673141  0.22635574  0.54028444     0.03800
N2871       N  0.27399462  0.23540924  0.56982255     0.66300
H2872       H  0.22814573  0.23156320  0.54988390     0.15200
H2873       H  0.28798138  0.19800504  0.97993686     0.14900
N2874       N  0.24156138  0.19482264  0.96080324     0.74000
O2875       O  0.28096041  0.25748339  0.57232941    -0.39500
O2876       O  0.26927778  0.22298247  0.59383008    -0.39400
O2877       O  0.24306049  0.20491965  0.93455470    -0.40100
O2878       O  0.23547851  0.17243536  0.96296445    -0.40200
C2879       C  0.06872568  0.21561762  0.70192314    -0.12500
C2880       C  0.07938994  0.19205237  0.70484435     0.04500
C2881       C  0.10152830  0.18959595  0.72187394    -0.07800
C2882       C  0.11357746  0.21064173  0.73268352    -0.08500
C2883       C  0.10376103  0.23434752  0.72806515    -0.03100
C2884       C  0.08062717  0.23671456  0.71323967     0.03800
N2885       N  0.06960283  0.26033173  0.70771960     0.66300
H2886       H  0.05165094  0.21795624  0.68922728     0.15200
H2887       H  0.13085025  0.20833912  0.74497786     0.14900
N2888       N  0.11204421  0.16594819  0.72861281     0.74000
O2889       O  0.08066595  0.27599351  0.69102220    -0.39500
O2890       O  0.04720680  0.26383583  0.71476330    -0.39400
O2891       O  0.13442987  0.16170050  0.72221797    -0.40100
O2892       O  0.10023745  0.15085102  0.74531723    -0.40200
C2893       C  0.18523897  0.27014215  0.84775079    -0.12500
C2894       C  0.16551087  0.26090885  0.83044560     0.04500
C2895       C  0.15020552  0.24243277  0.84299173    -0.07800
C2896       C  0.15433644  0.23395981  0.87292129    -0.08500
C2897       C  0.17312355  0.24416004  0.89118789    -0.03100
C2898       C  0.18905931  0.26205953  0.87813869     0.03800
N2899       N  0.20869789  0.27264030  0.89563720     0.66300
H2900       H  0.19704635  0.28439479  0.83810702     0.15200
H2901       H  0.14169454  0.22040197  0.88249361     0.14900
N2902       N  0.12995809  0.23257069  0.82584964     0.74000
O2903       O  0.22778164  0.26010202  0.90149120    -0.39500
O2904       O  0.20801681  0.29516129  0.90270885    -0.39400
O2905       O  0.13240473  0.21223882  0.81217313    -0.40100
O2906       O  0.10870019  0.24190575  0.82874466    -0.40200
C2907       C  0.16159794  0.30329771  0.61957818    -0.12500
C2908       C  0.16796220  0.28559428  0.64200482     0.04500
C2909       C  0.17225577  0.26101210  0.63255602    -0.07800
C2910       C  0.16810139  0.25425385  0.60193726    -0.08500
C2911       C  0.16064133  0.27166763  0.57996296    -0.03100
C2912       C  0.15801767  0.29649950  0.58865312     0.03800
N2913       N  0.14949415  0.31449253  0.56701025     0.66300
H2914       H  0.15804191  0.32217329  0.62632687     0.15200
H2915       H  0.17086042  0.23523505  0.59520129     0.14900
N2916       N  0.18103849  0.24269758  0.65371747     0.74000
O2917       O  0.12660675  0.31686765  0.56231036    -0.39500
O2918       O  0.16436716  0.33019206  0.55604306    -0.39400
O2919       O  0.16793556  0.22405319  0.65985881    -0.40100
O2920       O  0.20291662  0.24383817  0.66366201    -0.40200
C2921       C  0.34553039  0.29803942  0.89697307    -0.12500
C2922       C  0.34985396  0.28038459  0.87391870     0.04500
C2923       C  0.35755644  0.25637393  0.88279311    -0.07800
C2924       C  0.36223213  0.25118621  0.91360031    -0.08500
C2925       C  0.35908109  0.26905187  0.93639466    -0.03100
C2926       C  0.34998756  0.29254170  0.92813648     0.03800
N2927       N  0.34632939  0.31131061  0.95075994     0.66300
H2928       H  0.33954186  0.31645166  0.89074787     0.15200
H2929       H  0.36834805  0.23275940  0.91968866     0.14900
N2930       N  0.36149717  0.23702433  0.86095604     0.74000
O2931       O  0.36474131  0.32152698  0.96313175    -0.39500
O2932       O  0.32486107  0.31942966  0.95603361    -0.39400
O2933       O  0.38280640  0.22783744  0.85793673    -0.40100
O2934       O  0.34314345  0.22597756  0.84959772    -0.40200
C2935       C  0.33968516  0.27954272  0.66516003    -0.12500
C2936       C  0.34999535  0.26286917  0.68606623     0.04500
C2937       C  0.35525772  0.23866686  0.67716662    -0.07800
C2938       C  0.35151225  0.23174433  0.64664493    -0.08500
C2939       C  0.34304893  0.24893204  0.62464324    -0.03100
C2940       C  0.33608596  0.27281895  0.63446729     0.03800
N2941       N  0.32670084  0.29091299  0.61348427     0.66300
H2942       H  0.33535282  0.29815451  0.67241923     0.15200
H2943       H  0.35659919  0.21321978  0.63987713     0.14900
N2944       N  0.36536546  0.22130721  0.69862239     0.74000
O2945       O  0.30362690  0.29363770  0.61094636    -0.39500
O2946       O  0.34095989  0.30746290  0.60321366    -0.39400
O2947       O  0.35188964  0.20440588  0.70960936    -0.40100
O2948       O  0.38825081  0.22138216  0.70422160    -0.40200
C2949       C  0.26952551  0.33433691  0.77030701    -0.12500
C2950       C  0.28394446  0.31337494  0.76374090     0.04500
C2951       C  0.27338805  0.29444535  0.74572449    -0.07800
C2952       C  0.24900201  0.29618189  0.73603218    -0.08500
C2953       C  0.23377546  0.31588915  0.74467020    -0.03100
C2954       C  0.24442026  0.33556550  0.76131709     0.03800
N2955       N  0.22980166  0.35613890  0.77071324     0.66300
H2956       H  0.27732787  0.34914244  0.78384058     0.15200
H2957       H  0.24167131  0.28111233  0.72250788     0.14900
N2958       N  0.28694905  0.27293723  0.73701383     0.74000
O2959       O  0.21548967  0.35413790  0.79366335    -0.39500
O2960       O  0.23343568  0.37702407  0.75860511    -0.39400
O2961       O  0.28708785  0.25459882  0.75505544    -0.40100
O2962       O  0.29189258  0.26964493  0.70882840    -0.40200
C2963       C  0.76634389  0.71578434  0.78410975    -0.12500
C2964       C  0.78270806  0.72460880  0.76147871     0.04500
C2965       C  0.77371197  0.73100500  0.73201919    -0.07800
C2966       C  0.74834313  0.72956581  0.72613615    -0.08500
C2967       C  0.73189266  0.72182816  0.74929705    -0.03100
C2968       C  0.74097834  0.71443906  0.77827001     0.03800
N2969       N  0.72458847  0.70600648  0.80204415     0.66300
H2970       H  0.77318341  0.71082173  0.80680401     0.15200
H2971       H  0.74133944  0.73549244  0.70387675     0.14900
N2972       N  0.79009944  0.73918291  0.70808687     0.74000
O2973       O  0.71090188  0.68762151  0.79714211    -0.39500
O2974       O  0.72635972  0.71447540  0.82904678    -0.39400
O2975       O  0.80013637  0.72364575  0.69044291    -0.40100
O2976       O  0.79217254  0.76188700  0.70221599    -0.40200
C2977       C  0.91402031  0.82686078  0.78476178    -0.12500
C2978       C  0.90435577  0.80946049  0.80561007     0.04500
C2979       C  0.90879042  0.81214338  0.83739151    -0.07800
C2980       C  0.92298178  0.83192439  0.84779500    -0.08500
C2981       C  0.93193678  0.84999330  0.82720861    -0.03100
C2982       C  0.92730070  0.84733704  0.79531163     0.03800
N2983       N  0.93605274  0.86508034  0.77335789     0.66300
H2984       H  0.91076285  0.82481606  0.76022268     0.15200
H2985       H  0.92609387  0.83366233  0.87240050     0.14900
N2986       N  0.89929045  0.79477411  0.85936723     0.74000
O2987       O  0.92215044  0.88258413  0.76514557    -0.39500
O2988       O  0.95580689  0.86105372  0.75862204    -0.39400
O2989       O  0.91410567  0.78182756  0.87497987    -0.40100
O2990       O  0.87693578  0.79612619  0.86765922    -0.40200
C2991       C  0.64823035  0.74414341  0.59269810    -0.12500
C2992       C  0.66606871  0.76046471  0.58094499     0.04500
C2993       C  0.68615236  0.76730503  0.59969116    -0.07800
C2994       C  0.68712082  0.75902327  0.63036893    -0.08500
C2995       C  0.66867088  0.74351570  0.64252386    -0.03100
C2996       C  0.64934331  0.73558692  0.62309720     0.03800
N2997       N  0.62947136  0.72069395  0.63454603     0.66300
H2998       H  0.63268942  0.73873991  0.57849862     0.15200
H2999       H  0.70213438  0.76516220  0.64494673     0.14900
N3000       N  0.70482003  0.78380437  0.58866530     0.74000
O3001       O  0.61232406  0.73050928  0.65002758    -0.39500
O3002       O  0.62698316  0.69888873  0.62507526    -0.39400
O3003       O  0.70827777  0.80397474  0.60237231    -0.40100
O3004       O  0.72093649  0.77608035  0.56990771    -0.40200
C3005       C  0.66076131  0.80363945  0.87212116    -0.12500
C3006       C  0.67374879  0.78684398  0.89082421     0.04500
C3007       C  0.68208100  0.76444712  0.87819739    -0.07800
C3008       C  0.67566808  0.75841916  0.84796600    -0.08500
C3009       C  0.66116380  0.77436277  0.83018775    -0.03100
C3010       C  0.65416109  0.79741316  0.84193572     0.03800
N3011       N  0.63873178  0.81369342  0.82446842     0.66300
H3012       H  0.65396689  0.82076307  0.88175545     0.15200
H3013       H  0.68197902  0.74121570  0.83822357     0.14900
N3014       N  0.69714987  0.74785294  0.89575027     0.74000
O3015       O  0.61677619  0.80753675  0.81841893    -0.39500
O3016       O  0.64588488  0.83535007  0.81859453    -0.39400
O3017       O  0.69089094  0.72557975  0.89888501    -0.40100
O3018       O  0.71783706  0.75492127  0.90579093    -0.40200
C3019       C  0.84495120  0.80540078  0.64935234    -0.12500
C3020       C  0.84886609  0.78790956  0.62593833     0.04500
C3021       C  0.85698796  0.76398678  0.63437718    -0.07800
C3022       C  0.86188490  0.75847695  0.66515429    -0.08500
C3023       C  0.85868355  0.77604728  0.68838097    -0.03100
C3024       C  0.84977332  0.79968320  0.68042750     0.03800
N3025       N  0.84670534  0.81839616  0.70327420     0.66300
H3026       H  0.83887403  0.82385458  0.64346268     0.15200
H3027       H  0.86810969  0.74002133  0.67089210     0.14900
N3028       N  0.86119885  0.74510031  0.61203591     0.74000
O3029       O  0.86541760  0.82750143  0.71629530    -0.39500
O3030       O  0.82564376  0.82770226  0.70797938    -0.39400
O3031       O  0.88295109  0.73766802  0.60701180    -0.40100
O3032       O  0.84316171  0.73274968  0.60207413    -0.40200
C3033       C  0.82386391  0.76529694  0.88873669    -0.12500
C3034       C  0.84073647  0.74805988  0.87664095     0.04500
C3035       C  0.85989862  0.73908367  0.89578925    -0.07800
C3036       C  0.86295029  0.74853326  0.92517344    -0.08500
C3037       C  0.84712052  0.76659636  0.93652451    -0.03100
C3038       C  0.82676101  0.77437658  0.91883949     0.03800
N3039       N  0.80996557  0.79249946  0.93034637     0.66300
H3040       H  0.80901645  0.77235531  0.87447796     0.15200
H3041       H  0.87839528  0.74213972  0.93899561     0.14900
N3042       N  0.87781451  0.72179786  0.88510940     0.74000
O3043       O  0.81536045  0.81507667  0.92845853    -0.39500
O3044       O  0.78899731  0.78605769  0.94041041    -0.39400
O3045       O  0.89839595  0.72963341  0.87541817    -0.40100
O3046       O  0.87585061  0.69958338  0.89339542    -0.40200
C3047       C  0.77427532  0.83711744  0.00896583    -0.12500
C3048       C  0.78164495  0.82837844  0.52232095     0.04500
C3049       C  0.76209569  0.82683871  0.54389375    -0.07800
C3050       C  0.73757714  0.82566776  0.53342433    -0.08500
C3051       C  0.73415753  0.81688689  0.00528742    -0.03100
C3052       C  0.74985344  0.83671737  0.99758013     0.03800
N3053       N  0.74199738  0.85526807  0.97624419     0.66300
H3054       H  0.78676431  0.85150621  0.00123206     0.15200
H3055       H  0.72265348  0.82375459  0.54996372     0.14900
N3056       N  0.76689970  0.82553283  0.57634878     0.74000
O3057       O  0.73686751  0.87661243  0.98573703    -0.39500
O3058       O  0.73893451  0.85000730  0.94815947    -0.39400
O3059       O  0.75794656  0.84162148  0.59411989    -0.40100
O3060       O  0.77746167  0.80685423  0.58770725    -0.40200
C3061       C  0.87411449  0.87427200  0.93876372    -0.12500
C3062       C  0.88097356  0.87386021  0.96996038     0.04500
C3063       C  0.89933527  0.89036717  0.98037464    -0.07800
C3064       C  0.91280514  0.90414435  0.95873171    -0.08500
C3065       C  0.90812889  0.90204964  0.92706960    -0.03100
C3066       C  0.88710536  0.88880757  0.91733213     0.03800
N3067       N  0.88051032  0.88765511  0.88543065     0.66300
H3068       H  0.85990739  0.86181747  0.93063958     0.15200
H3069       H  0.92858682  0.91475587  0.96645333     0.14900
N3070       N  0.90086435  0.89740763  0.51194628     0.74000
O3071       O  0.88235649  0.86757761  0.87105175    -0.39500
O3072       O  0.86903821  0.90543550  0.87323427    -0.39400
O3073       O  0.92265307  0.89631080  0.52219922    -0.40100
O3074       O  0.88382940  0.90559253  0.52906699    -0.40200
C3075       C  0.93338751  0.85043934  0.59682851    -0.12500
C3076       C  0.93235932  0.84380534  0.56547579     0.04500
C3077       C  0.95338752  0.84859730  0.54649588    -0.07800
C3078       C  0.97359654  0.86148067  0.55839332    -0.08500
C3079       C  0.97412264  0.86867180  0.58926604    -0.03100
C3080       C  0.95418441  0.86254325  0.60885998     0.03800
N3081       N  0.95426960  0.86968074  0.64058990     0.66300
H3082       H  0.91776168  0.84680210  0.61191434     0.15200
H3083       H  0.98914638  0.86574888  0.54340863     0.14900
N3084       N  0.95457701  0.84087180  0.51496099     0.74000
O3085       O  0.95000586  0.89177646  0.64781214    -0.39500
O3086       O  0.95626770  0.85353356  0.66149389    -0.39400
O3087       O  0.95657533  0.85674574  0.49369928    -0.40100
O3088       O  0.95842444  0.81846603  0.50890864    -0.40200
C3089       C  0.59239975  0.86232915  0.92779917    -0.12500
C3090       C  0.58960782  0.83915661  0.94191714     0.04500
C3091       C  0.56574106  0.82871126  0.94415818    -0.07800
C3092       C  0.54513164  0.84196072  0.93377659    -0.08500
C3093       C  0.54779920  0.86581301  0.92175626    -0.03100
C3094       C  0.57168815  0.87583811  0.91819006     0.03800
N3095       N  0.57515713  0.89971407  0.90483060     0.66300
H3096       H  0.61057346  0.87063223  0.92590525     0.15200
H3097       H  0.52688847  0.83386853  0.93592771     0.14900
N3098       N  0.56220081  0.80453093  0.95657018     0.74000
O3099       O  0.57517355  0.91849166  0.92189376    -0.39500
O3100       O  0.58162387  0.90169812  0.87690108    -0.39400
O3101       O  0.54737861  0.81095994  0.49526189    -0.40100
O3102       O  0.56377432  0.78618446  0.93889741    -0.40200
C3103       C  0.44231702  0.21138393  0.82236102    -0.12500
C3104       C  0.43277595  0.18757775  0.81748497     0.04500
C3105       C  0.41182106  0.18490790  0.79839981    -0.07800
C3106       C  0.40031928  0.20593668  0.78604301    -0.08500
C3107       C  0.40942778  0.22976715  0.79185069    -0.03100
C3108       C  0.43074345  0.23236628  0.81022751     0.03800
N3109       N  0.43966437  0.25614958  0.81908166     0.66300
H3110       H  0.45814858  0.21397459  0.83725962     0.15200
H3111       H  0.38411877  0.20358232  0.77169947     0.14900
N3112       N  0.40212218  0.16109433  0.79104245     0.74000
O3113       O  0.42621916  0.27001452  0.83539094    -0.39500
O3114       O  0.46216465  0.26152683  0.81513809    -0.39400
O3115       O  0.37955710  0.15639299  0.79574289    -0.40100
O3116       O  0.41533223  0.14579878  0.77656398    -0.40200
C3117       C  0.37559262  0.16544892  0.94267850    -0.12500
C3118       C  0.38506170  0.16562168  0.97272392     0.04500
C3119       C  0.40434948  0.14937092  0.98075844    -0.07800
C3120       C  0.41547451  0.13496479  0.95799624    -0.08500
C3121       C  0.40802420  0.13705375  0.92721790    -0.03100
C3122       C  0.38694573  0.15113240  0.91973053     0.03800
N3123       N  0.37893532  0.15326638  0.88829843     0.66300
H3124       H  0.36090231  0.17809720  0.93642863     0.15200
H3125       H  0.43211160  0.12474421  0.96364150     0.14900
N3126       N  0.40933556  0.14783247  0.51033194     0.74000
O3127       O  0.37654130  0.13423654  0.87193452    -0.39500
O3128       O  0.37433030  0.17415217  0.87673805    -0.39400
O3129       O  0.40218206  0.13033837  0.52745078    -0.40100
O3130       O  0.42756800  0.16074338  0.51844205    -0.40200
C3131       C  0.44857214  0.02512492  0.86341531    -0.12500
C3132       C  0.46210721  0.04123879  0.88229552     0.04500
C3133       C  0.47473864  0.03141788  0.90820890    -0.07800
C3134       C  0.47480272  0.00601492  0.91360052    -0.08500
C3135       C  0.46208293  0.98999248  0.89417216    -0.03100
C3136       C  0.44846582  0.99959304  0.86923621     0.03800
N3137       N  0.43561573  0.98352557  0.84877502     0.66300
H3138       H  0.43895459  0.03220112  0.84333884     0.15200
H3139       H  0.48526836  0.99866018  0.93287445     0.14900
N3140       N  0.48807242  0.04691403  0.92897711     0.74000
O3141       O  0.41541739  0.97387412  0.85709789    -0.39500
O3142       O  0.44328983  0.98070831  0.82146501    -0.39400
O3143       O  0.47651251  0.06163527  0.94628403    -0.40100
O3144       O  0.51100548  0.04381481  0.93264679    -0.40200
C3145       C  0.59488030  0.83111311  0.67243581    -0.12500
C3146       C  0.58350233  0.84793235  0.69247283     0.04500
C3147       C  0.58424405  0.84344593  0.72456685    -0.07800
C3148       C  0.59634280  0.82234245  0.73590875    -0.08500
C3149       C  0.60851455  0.80606977  0.71574381    -0.03100
C3150       C  0.60775420  0.81069714  0.68365587     0.03800
N3151       N  0.61976872  0.79481336  0.66197537     0.66300
H3152       H  0.59457202  0.83428471  0.64769776     0.15200
H3153       H  0.59676182  0.81899812  0.76058176     0.14900
N3154       N  0.57234483  0.85974328  0.74576598     0.74000
O3155       O  0.60696716  0.78403002  0.64183342    -0.39500
O3156       O  0.64278790  0.79683578  0.65776732    -0.39400
O3157       O  0.55052877  0.85535792  0.75465900    -0.40100
O3158       O  0.58460600  0.87663388  0.75850487    -0.40200
C3159       C  0.60212868  0.90033034  0.55846076    -0.12500
C3160       C  0.60752993  0.89878621  0.59002412     0.04500
C3161       C  0.62797536  0.88455162  0.59976685    -0.07800
C3162       C  0.63950254  0.86871759  0.57862990    -0.08500
C3163       C  0.63174842  0.86804970  0.54782063    -0.03100
C3164       C  0.61388999  0.88497996  0.53732605     0.03800
N3165       N  0.60416721  0.88357464  0.50673795     0.66300
H3166       H  0.58649846  0.91108679  0.55076222     0.15200
H3167       H  0.65360627  0.85604552  0.58655068     0.14900
N3168       N  0.63566853  0.88428489  0.63137983     0.74000
O3169       O  0.58337640  0.87359132  0.50257530    -0.39500
O3170       O  0.61353214  0.89663469  0.48554218    -0.39400
O3171       O  0.63895686  0.86406256  0.64528093    -0.40100
O3172       O  0.64291704  0.90399933  0.64375832    -0.40200
C3173       C  0.50643840  0.94249994  0.50918211    -0.12500
C3174       C  0.48431626  0.93089655  0.50039990     0.04500
C3175       C  0.46998859  0.91874829  0.52332576    -0.07800
C3176       C  0.47875596  0.91712880  0.55354891    -0.08500
C3177       C  0.50117759  0.92797962  0.56184914    -0.03100
C3178       C  0.51489600  0.94125403  0.53966529     0.03800
N3179       N  0.53813912  0.95221583  0.54721177     0.66300
H3180       H  0.51864832  0.95209891  0.99361786     0.15200
H3181       H  0.46827676  0.90674075  0.57052186     0.14900
N3182       N  0.44703106  0.90704337  0.51621423     0.74000
O3183       O  0.55717750  0.94678284  0.53173590    -0.39500
O3184       O  0.53865544  0.97069349  0.56471629    -0.39400
O3185       O  0.44605821  0.88390954  0.51365659    -0.40100
O3186       O  0.42726626  0.91940494  0.51664962    -0.40200
C3187       C  0.52934140  0.93082488  0.80420261    -0.12500
C3188       C  0.51275317  0.91146883  0.81078899     0.04500
C3189       C  0.50354836  0.89706191  0.78617502    -0.07800
C3190       C  0.50924096  0.90363822  0.75594960    -0.08500
C3191       C  0.52497236  0.92344840  0.74938309    -0.03100
C3192       C  0.53571797  0.93672658  0.77365980     0.03800
N3193       N  0.55210445  0.95686320  0.76763577     0.66300
H3194       H  0.53682268  0.94190434  0.82269590     0.15200
H3195       H  0.50195392  0.89249661  0.73733884     0.14900
N3196       N  0.48908016  0.87525531  0.79124904     0.74000
O3197       O  0.54370889  0.97695181  0.75727759    -0.39500
O3198       O  0.57455423  0.95534080  0.77526035    -0.39400
O3199       O  0.46892293  0.87244202  0.77707799    -0.40100
O3200       O  0.49851697  0.85710436  0.80523386    -0.40200
C3201       C  0.47745570  0.19169988  0.57996940    -0.12500
C3202       C  0.47266811  0.17357240  0.60227508     0.04500
C3203       C  0.44805926  0.16873379  0.61118480    -0.07800
C3204       C  0.42868211  0.18140712  0.59690229    -0.08500
C3205       C  0.43328681  0.19876778  0.57338984    -0.03100
C3206       C  0.45813110  0.20389294  0.56478885     0.03800
N3207       N  0.46420574  0.21939446  0.53890640     0.66300
H3208       H  0.49633091  0.19496779  0.57246164     0.15200
H3209       H  0.40986241  0.17735331  0.60399099     0.14900
N3210       N  0.44248236  0.15109573  0.63483197     0.74000
O3211       O  0.48265106  0.23358300  0.54048908    -0.39500
O3212       O  0.45536850  0.21455319  0.51269182    -0.39400
O3213       O  0.44456158  0.15700272  0.66285003    -0.40100
O3214       O  0.43261515  0.13081096  0.62786782    -0.40200
C3215       C  0.53880697  0.10260982  0.99582524    -0.12500
C3216       C  0.52221910  0.10856031  0.51855166     0.04500
C3217       C  0.49730235  0.10605067  0.50920048    -0.07800
C3218       C  0.50022532  0.13424924  0.97983465    -0.08500
C3219       C  0.51295780  0.12169812  0.95644173    -0.03100
C3220       C  0.53322001  0.10635465  0.96448454     0.03800
N3221       N  0.54882273  0.09528238  0.94152839     0.66300
H3222       H  0.55404711  0.09065281  0.00211453     0.15200
H3223       H  0.48516843  0.14672472  0.97445156     0.14900
N3224       N  0.47834389  0.09833034  0.53028221     0.74000
O3225       O  0.55918272  0.10869846  0.92139251    -0.39500
O3226       O  0.55630379  0.07343128  0.94518757    -0.39400
O3227       O  0.46051612  0.11253072  0.53638569    -0.40100
O3228       O  0.47790810  0.07635312  0.53992981    -0.40200
C3229       C  0.49230711  0.08519345  0.75111446    -0.12500
C3230       C  0.48626981  0.10576773  0.76904053     0.04500
C3231       C  0.48678567  0.12949942  0.75580546    -0.07800
C3232       C  0.49357931  0.13241803  0.72517275    -0.08500
C3233       C  0.50033003  0.11217427  0.70711880    -0.03100
C3234       C  0.49905871  0.08820060  0.71998925     0.03800
N3235       N  0.50465264  0.06691132  0.70197885     0.66300
H3236       H  0.49156615  0.06688624  0.76118104     0.15200
H3237       H  0.49429189  0.15096357  0.71579769     0.14900
N3238       N  0.48212928  0.15110623  0.77372514     0.74000
O3239       O  0.52596336  0.05747920  0.70302094    -0.39500
O3240       O  0.48762266  0.05608340  0.68753894    -0.39400
O3241       O  0.49748341  0.15724095  0.79409992    -0.40100
O3242       O  0.46681458  0.16689711  0.76412730    -0.40200
C3243       C  0.57348709  0.03431415  0.63709166    -0.12500
C3244       C  0.55343048  0.04313027  0.61951727     0.04500
C3245       C  0.53467715  0.02641326  0.61080132    -0.07800
C3246       C  0.53508690  0.00237483  0.62182699    -0.08500
C3247       C  0.55446339  0.99370587  0.64019759    -0.03100
C3248       C  0.57424060  0.00959236  0.64719557     0.03800
N3249       N  0.59398377  0.00152146  0.66656529     0.66300
H3250       H  0.58797883  0.04683402  0.64417236     0.15200
H3251       H  0.51991728  0.99026536  0.61583171     0.14900
N3252       N  0.51477370  0.03355231  0.59098729     0.74000
O3253       O  0.61364847  0.99332615  0.65466575    -0.39500
O3254       O  0.59285624  0.00509906  0.69530539    -0.39400
O3255       O  0.51848388  0.03570753  0.56231283    -0.40100
O3256       O  0.49297324  0.03443440  0.60145376    -0.40200
C3257       C  0.93938653  0.71602435  0.56366456    -0.12500
C3258       C  0.92775522  0.69285280  0.56239398     0.04500
C3259       C  0.90452475  0.69119031  0.54773212    -0.07800
C3260       C  0.89307807  0.71252593  0.53606700    -0.08500
C3261       C  0.90434332  0.73582296  0.53821496    -0.03100
C3262       C  0.92806228  0.73731600  0.55172628     0.03800
N3263       N  0.94035454  0.76046032  0.55518134     0.66300
H3264       H  0.95719598  0.71777455  0.57485277     0.15200
H3265       H  0.87496876  0.71083139  0.52565984     0.14900
N3266       N  0.89157931  0.66829963  0.54592722     0.74000
O3267       O  0.93423897  0.77470628  0.57686143    -0.39500
O3268       O  0.95917402  0.76533474  0.53895032    -0.39400
O3269       O  0.87164554  0.66558348  0.56078016    -0.40100
O3270       O  0.88977151  0.65685046  0.02103122    -0.40200
C3271       C  0.91537037  0.64222473  0.70632933    -0.12500
C3272       C  0.90790544  0.64465572  0.67561156     0.04500
C3273       C  0.88606678  0.65778897  0.66873812    -0.07800
C3274       C  0.87438071  0.67141673  0.69209982    -0.08500
C3275       C  0.88418936  0.67177847  0.72197806    -0.03100
C3276       C  0.90411427  0.65605792  0.72944238     0.03800
N3277       N  0.91532561  0.65628131  0.75927770     0.66300
H3278       H  0.93213024  0.63211841  0.71175106     0.15200
H3279       H  0.85909483  0.68347348  0.68625152     0.14900
N3280       N  0.87754666  0.66003806  0.63762623     0.74000
O3281       O  0.91702704  0.63627917  0.77410040    -0.39500
O3282       O  0.92990190  0.67361999  0.76579103    -0.39400
O3283       O  0.87112581  0.64107530  0.62293034    -0.40100
O3284       O  0.87467081  0.68106797  0.62560592    -0.40200
C3285       C  0.94790385  0.51432376  0.65716810    -0.12500
C3286       C  0.95990737  0.49716859  0.63796787     0.04500
C3287       C  0.96910689  0.50502896  0.60893504    -0.07800
C3288       C  0.96802855  0.53001850  0.60096237    -0.08500
C3289       C  0.95723614  0.54735562  0.62075725    -0.03100
C3290       C  0.94652257  0.53935055  0.64874743     0.03800
N3291       N  0.93637411  0.55670267  0.67004413     0.66300
H3292       H  0.94085720  0.50856281  0.67952489     0.15200
H3293       H  0.97594618  0.53607169  0.57916792     0.14900
N3294       N  0.97958908  0.48788732  0.58733998     0.74000
O3295       O  0.91346706  0.56111570  0.67007128    -0.39500
O3296       O  0.95007502  0.56663644  0.68995081    -0.39400
O3297       O  0.96849045  0.46801079  0.58139049    -0.40100
O3298       O  0.99866483  0.49359546  0.57199996    -0.40200
C3299       C  0.04104673  0.35876924  0.70748024    -0.12500
C3300       C  0.04375002  0.37336681  0.68112344     0.04500
C3301       C  0.06674161  0.37456079  0.66591798    -0.07800
C3302       C  0.08697868  0.36142851  0.67771890    -0.08500
C3303       C  0.08461090  0.34695210  0.70461860    -0.03100
C3304       C  0.06112698  0.34571249  0.71951839     0.03800
N3305       N  0.05726623  0.33180302  0.74727147     0.66300
H3306       H  0.02330974  0.35791491  0.71921094     0.15200
H3307       H  0.10463447  0.36277778  0.66591292     0.14900
N3308       N  0.06976764  0.38919381  0.63861417     0.74000
O3309       O  0.06270516  0.34127113  0.77293219    -0.39500
O3310       O  0.04357430  0.31298761  0.74672178    -0.39400
O3311       O  0.08305160  0.40829725  0.63915962    -0.40100
O3312       O  0.06035988  0.38225283  0.61349178    -0.40200
C3313       C  0.95050104  0.71007034  0.82836618    -0.12500
C3314       C  0.92725943  0.69845324  0.82836883     0.04500
C3315       C  0.92495571  0.67496344  0.84276403    -0.07800
C3316       C  0.94616250  0.66299737  0.85352546    -0.08500
C3317       C  0.96965536  0.67381803  0.85108110    -0.03100
C3318       C  0.97151318  0.69816822  0.83978847     0.03800
N3319       N  0.99447000  0.71118059  0.83952944     0.66300
H3320       H  0.95268086  0.72834904  0.81854542     0.15200
H3321       H  0.94418323  0.64472941  0.86345984     0.14900
N3322       N  0.90158284  0.66286858  0.84729437     0.74000
O3323       O  0.00945123  0.70820819  0.81745704    -0.39500
O3324       O  0.99711151  0.72937793  0.85721715    -0.39400
O3325       O  0.89038070  0.65386208  0.82448844    -0.40100
O3326       O  0.89601221  0.65512257  0.87396393    -0.40200
C3327       C  0.02835783  0.59618923  0.74215856    -0.12500
C3328       C  0.02579561  0.61606880  0.76245993     0.04500
C3329       C  0.01698558  0.63873111  0.75128152    -0.07800
C3330       C  0.01014453  0.64119342  0.72047163    -0.08500
C3331       C  0.01174088  0.62125657  0.69997846    -0.03100
C3332       C  0.02125304  0.59853008  0.71104640     0.03800
N3333       N  0.02349070  0.57762506  0.69130096     0.66300
H3334       H  0.03506397  0.57862331  0.75069483     0.15200
H3335       H  0.00317791  0.65890511  0.71279551     0.14900
N3336       N  0.01496337  0.65956819  0.77113149     0.74000
O3337       O  0.00588105  0.56246120  0.68939785    -0.39500
O3338       O  0.04418684  0.57240570  0.67947009    -0.39400
O3339       O  0.03360158  0.67307569  0.77549772    -0.40100
O3340       O  0.99389680  0.66669490  0.77996246    -0.40200
C3341       C  0.00353161  0.59091937  0.00115200    -0.12500
C3342       C  0.98363221  0.60433146  0.51228754     0.04500
C3343       C  0.97158880  0.62168221  0.99287506    -0.07800
C3344       C  0.97918307  0.62404363  0.96218703    -0.08500
C3345       C  0.99897847  0.61016888  0.95079869    -0.03100
C3346       C  0.01070550  0.59280898  0.97004667     0.03800
N3347       N  0.03119687  0.57861976  0.95905859     0.66300
H3348       H  0.01639574  0.58227863  0.51971681     0.15200
H3349       H  0.97006943  0.63738458  0.94737263     0.14900
N3350       N  0.94665679  0.62872961  0.49858000     0.74000
O3351       O  0.05155486  0.58900075  0.95306339    -0.39500
O3352       O  0.02951603  0.55547157  0.95748018    -0.39400
O3353       O  0.94635710  0.65198159  0.49841555    -0.40100
O3354       O  0.93041253  0.62801558  0.00563853    -0.40200
C3355       C  0.01734218  0.40199985  0.51392813    -0.12500
C3356       C  0.03081860  0.42289282  0.50522284     0.04500
C3357       C  0.03830004  0.43981133  0.52784198    -0.07800
C3358       C  0.03057740  0.43644392  0.55857907    -0.08500
C3359       C  0.01595556  0.41602449  0.56703418    -0.03100
C3360       C  0.01048784  0.39800099  0.54452742     0.03800
N3361       N  0.99837732  0.37531428  0.55234860     0.66300
H3362       H  0.01230490  0.38844794  0.49673904     0.15200
H3363       H  0.03521454  0.45028994  0.57553968     0.14900
N3364       N  0.05221029  0.46123196  0.51960041     0.74000
O3365       O  0.97884289  0.36911594  0.53853750    -0.39500
O3366       O  0.00903290  0.35997421  0.56980267    -0.39400
O3367       O  0.03776210  0.48122129  0.00534219    -0.40100
O3368       O  0.07527952  0.46160191  0.52383568    -0.40200
C3369       C  0.98587368  0.41236200  0.80333435    -0.12500
C3370       C  0.00088936  0.43040105  0.81662689     0.04500
C3371       C  0.00691867  0.45169613  0.79939608    -0.07800
C3372       C  0.99870574  0.45401332  0.76871823    -0.08500
C3373       C  0.98441025  0.43537467  0.75509112    -0.03100
C3374       C  0.97786387  0.41445931  0.77289943     0.03800
N3375       N  0.96552257  0.39384575  0.75944161     0.66300
H3376       H  0.98132088  0.39578032  0.81623042     0.15200
H3377       H  0.00406704  0.47004953  0.75527490     0.14900
N3378       N  0.02263402  0.47023736  0.81197201     0.74000
O3379       O  0.97726783  0.38009341  0.74111201    -0.39500
O3380       O  0.94509392  0.38664228  0.77041111    -0.39400
O3381       O  0.04580438  0.46755670  0.81106749    -0.40100
O3382       O  0.01355191  0.49052126  0.82046637    -0.40200
C3383       C  0.03095197  0.50844020  0.88989953    -0.12500
C3384       C  0.05365682  0.49699479  0.89614137     0.04500
C3385       C  0.07564097  0.51035989  0.89038801    -0.07800
C3386       C  0.07432413  0.53463413  0.87833907    -0.08500
C3387       C  0.05132940  0.54584616  0.87191983    -0.03100
C3388       C  0.02949834  0.53219329  0.87803549     0.03800
N3389       N  0.00532929  0.54214200  0.87295505     0.66300
H3390       H  0.01368957  0.49871290  0.89368679     0.15200
H3391       H  0.09128346  0.54481097  0.87437111     0.14900
N3392       N  0.09923262  0.49993762  0.89752963     0.74000
O3393       O  0.99556600  0.54027398  0.84664335    -0.39500
O3394       O  0.99200854  0.54787694  0.89581277    -0.39400
O3395       O  0.11491319  0.49638348  0.87636036    -0.40100
O3396       O  0.10478570  0.49511172  0.92519192    -0.40200
C3397       C  0.09576624  0.33161161  0.92196484    -0.12500
C3398       C  0.08646760  0.34931255  0.94265944     0.04500
C3399       C  0.08826980  0.34473880  0.97468601    -0.07800
C3400       C  0.09959562  0.32298762  0.98529019    -0.08500
C3401       C  0.10973570  0.30594768  0.96446661    -0.03100
C3402       C  0.10740793  0.31020985  0.93255111     0.03800
N3403       N  0.11597406  0.29248337  0.91062652     0.66300
H3404       H  0.09432898  0.33452667  0.89725225     0.15200
H3405       H  0.10225577  0.31820655  0.51031272     0.14900
N3406       N  0.07826162  0.36163657  0.99664451     0.74000
O3407       O  0.10071883  0.27843834  0.89751477    -0.39500
O3408       O  0.13818570  0.29287627  0.90163452    -0.39400
O3409       O  0.05724437  0.35574271  0.50757874    -0.40100
O3410       O  0.09232614  0.37552858  0.50833573    -0.40200
C3411       C  0.12746447  0.38463766  0.85377210    -0.12500
C3412       C  0.10870078  0.39989585  0.84202489     0.04500
C3413       C  0.10610210  0.40236830  0.80977261    -0.07800
C3414       C  0.12023314  0.38759691  0.79005985    -0.08500
C3415       C  0.13655071  0.36992342  0.80207540    -0.03100
C3416       C  0.14124418  0.36948751  0.83401875     0.03800
N3417       N  0.15866099  0.35250970  0.84679909     0.66300
H3418       H  0.12966538  0.38249231  0.87851399     0.15200
H3419       H  0.11640216  0.38808454  0.76550101     0.14900
N3420       N  0.08756847  0.41808625  0.79687205     0.74000
O3421       O  0.18144059  0.35747542  0.84584123    -0.39500
O3422       O  0.15119064  0.33444308  0.86270896    -0.39400
O3423       O  0.09286478  0.44015643  0.79040514    -0.40100
O3424       O  0.06766449  0.40893459  0.78700744    -0.40200
C3425       C  0.11862016  0.89116163  0.72717877    -0.12500
C3426       C  0.13603925  0.87339718  0.71836556     0.04500
C3427       C  0.14304874  0.87150093  0.68715677    -0.07800
C3428       C  0.12990917  0.88486906  0.66484860    -0.08500
C3429       C  0.11052223  0.90056261  0.67348436    -0.03100
C3430       C  0.10615103  0.90513146  0.70493975     0.03800
N3431       N  0.08702494  0.92164651  0.71440725     0.66300
H3432       H  0.11301241  0.89254919  0.75113548     0.15200
H3433       H  0.13326818  0.88125772  0.64063107     0.14900
N3434       N  0.16154615  0.85420703  0.67767640     0.74000
O3435       O  0.06791702  0.91331296  0.72755567    -0.39500
O3436       O  0.09119927  0.94451429  0.71475091    -0.39400
O3437       O  0.15722093  0.83939623  0.65598773    -0.40100
O3438       O  0.18316327  0.85575776  0.68837991    -0.40200
C3439       C  0.06826478  0.88239567  0.85060093    -0.12500
C3440       C  0.04523186  0.87048047  0.85286223     0.04500
C3441       C  0.04357022  0.84565091  0.84320193    -0.07800
C3442       C  0.06409034  0.83425188  0.82926125    -0.08500
C3443       C  0.08674506  0.84671881  0.82544215    -0.03100
C3444       C  0.08882129  0.87089016  0.83723424     0.03800
N3445       N  0.11128592  0.88462863  0.83459434     0.66300
H3446       H  0.07024987  0.90126482  0.85827192     0.15200
H3447       H  0.06214751  0.81549418  0.82116381     0.14900
N3448       N  0.02119176  0.83181866  0.84681745     0.74000
O3449       O  0.11471719  0.89843247  0.81144978    -0.39500
O3450       O  0.12521510  0.88665508  0.85774550    -0.39400
O3451       O  0.01098129  0.82240606  0.82352286    -0.40100
O3452       O  0.01406689  0.82553760  0.87351037    -0.40200
C3453       C  0.09120029  0.73770365  0.82365608    -0.12500
C3454       C  0.10694911  0.73474839  0.79844450     0.04500
C3455       C  0.10983565  0.71135932  0.78507336    -0.07800
C3456       C  0.09718220  0.69107709  0.79759969    -0.08500
C3457       C  0.08173715  0.69366809  0.82359080    -0.03100
C3458       C  0.07881160  0.71754946  0.83669165     0.03800
N3459       N  0.06421376  0.72187675  0.86381284     0.66300
H3460       H  0.08928528  0.75572151  0.83413035     0.15200
H3461       H  0.09980543  0.67315231  0.78717628     0.14900
N3462       N  0.12571154  0.70792652  0.75896242     0.74000
O3463       O  0.07237240  0.71494831  0.88971321    -0.39500
O3464       O  0.04785845  0.73845381  0.86308653    -0.39400
O3465       O  0.14325660  0.69263120  0.76038978    -0.40100
O3466       O  0.12028519  0.71771997  0.73337813    -0.40200
C3467       C  0.38916262  0.88847680  0.79583758    -0.12500
C3468       C  0.37693912  0.86666813  0.80446617     0.04500
C3469       C  0.37654215  0.85952185  0.83570350    -0.07800
C3470       C  0.39136864  0.87181052  0.85682831    -0.08500
C3471       C  0.40644332  0.89131147  0.84726851    -0.03100
C3472       C  0.40415831  0.90087945  0.81713602     0.03800
N3473       N  0.41886757  0.92128237  0.80693294     0.66300
H3474       H  0.38979586  0.89393923  0.77173436     0.15200
H3475       H  0.39281486  0.86468877  0.88021115     0.14900
N3476       N  0.36319865  0.83817143  0.84551017     0.74000
O3477       O  0.44211058  0.91936606  0.80563932    -0.39500
O3478       O  0.40849661  0.94001194  0.79544027    -0.39400
O3479       O  0.37425876  0.82108232  0.85972931    -0.40100
O3480       O  0.33987797  0.83858413  0.84508571    -0.40200
C3481       C  0.42870099  0.86186084  0.67974110    -0.12500
C3482       C  0.43337944  0.84160380  0.69924803     0.04500
C3483       C  0.45807139  0.83337269  0.70244695    -0.07800
C3484       C  0.47734430  0.84596415  0.68725128    -0.08500
C3485       C  0.47259237  0.86683213  0.66883203    -0.03100
C3486       C  0.44785923  0.87433554  0.66458535     0.03800
N3487       N  0.44176638  0.89433947  0.64442071     0.66300
H3488       H  0.40993573  0.86823120  0.67611765     0.15200
H3489       H  0.49622749  0.83996706  0.69095059     0.14900
N3490       N  0.46408793  0.81294937  0.72195625     0.74000
O3491       O  0.44008483  0.89059154  0.61578028    -0.39500
O3492       O  0.43413969  0.91441861  0.65552505    -0.39400
O3493       O  0.46885338  0.79225372  0.71018825    -0.40100
O3494       O  0.46785301  0.81635907  0.75035558    -0.40200
C3495       C  0.27416693  0.83152494  0.76667197    -0.12500
C3496       C  0.28305709  0.81563761  0.74377619     0.04500
C3497       C  0.26639572  0.80128385  0.72681046    -0.07800
C3498       C  0.24133418  0.80148025  0.73442426    -0.08500
C3499       C  0.23231141  0.81610108  0.75870130    -0.03100
C3500       C  0.24885952  0.83201332  0.77413678     0.03800
N3501       N  0.24061188  0.84758129  0.79860491     0.66300
H3502       H  0.28701613  0.84264736  0.77975979     0.15200
H3503       H  0.22894077  0.78970273  0.72154783     0.14900
N3504       N  0.27484261  0.78619626  0.70192470     0.74000
O3505       O  0.24058828  0.83967236  0.82605453    -0.39500
O3506       O  0.23643678  0.87008275  0.79332632    -0.39400
O3507       O  0.27326228  0.76304497  0.70387934    -0.40100
O3508       O  0.28128512  0.79608594  0.67671808    -0.40200
C3509       C  0.12265071  0.83121657  0.53975137    -0.12500
C3510       C  0.10991914  0.80882310  0.53617442     0.04500
C3511       C  0.08487928  0.80770443  0.54566031    -0.07800
C3512       C  0.07378274  0.82798045  0.56006922    -0.08500
C3513       C  0.08695004  0.84987273  0.56529621    -0.03100
C3514       C  0.11154576  0.85153693  0.55414070     0.03800
N3515       N  0.12597724  0.87331233  0.55827641     0.66300
H3516       H  0.14176442  0.83277894  0.53238325     0.15200
H3517       H  0.05476828  0.82628663  0.56779077     0.14900
N3518       N  0.07056108  0.78584913  0.54191164     0.74000
O3519       O  0.14075094  0.87463369  0.58068220    -0.39500
O3520       O  0.12722069  0.88909505  0.53683673    -0.39400
O3521       O  0.06950344  0.77018261  0.56351036    -0.40100
O3522       O  0.06279737  0.78365389  0.01416912    -0.40200
C3523       C  0.10429423  0.63941498  0.95438777    -0.12500
C3524       C  0.10619605  0.64394957  0.92259029     0.04500
C3525       C  0.12387509  0.66113867  0.91158070    -0.07800
C3526       C  0.13703332  0.67535410  0.93277671    -0.08500
C3527       C  0.13318197  0.67261923  0.96457858    -0.03100
C3528       C  0.11779676  0.65340919  0.97548194     0.03800
N3529       N  0.11280096  0.65031048  0.00770353     0.66300
H3530       H  0.09059169  0.62649220  0.96301059     0.15200
H3531       H  0.14890373  0.69000395  0.92431381     0.14900
N3532       N  0.12627942  0.66681098  0.87930800     0.74000
O3533       O  0.09202762  0.65663203  0.01841751    -0.39500
O3534       O  0.12261285  0.64012897  0.52952945    -0.39400
O3535       O  0.12647954  0.68900141  0.87041311    -0.40100
O3536       O  0.13255717  0.65017488  0.86059072    -0.40200
C3537       C  0.03752202  0.69196166  0.56548299    -0.12500
C3538       C  0.04061492  0.67506780  0.58960347     0.04500
C3539       C  0.06436500  0.67114173  0.60187262    -0.07800
C3540       C  0.08466716  0.68373691  0.58941898    -0.08500
C3541       C  0.08195533  0.69988357  0.56414410    -0.03100
C3542       C  0.05786229  0.70391113  0.55203210     0.03800
N3543       N  0.05350400  0.71905463  0.52540404     0.66300
H3544       H  0.01930028  0.69475897  0.55569804     0.15200
H3545       H  0.10279174  0.68020618  0.59907419     0.14900
N3546       N  0.06811878  0.65450328  0.62712181     0.74000
O3547       O  0.05991515  0.71668922  0.00130605    -0.39500
O3548       O  0.03711550  0.73557306  0.52684504    -0.39400
O3549       O  0.07885280  0.63417437  0.62266933    -0.40100
O3550       O  0.06315249  0.66123187  0.65430026    -0.40200
C3551       C  0.16607179  0.80105438  0.92763720    -0.12500
C3552       C  0.17342040  0.77715913  0.93535499     0.04500
C3553       C  0.18374595  0.76169704  0.91274438    -0.07800
C3554       C  0.18484604  0.76995421  0.88208192    -0.08500
C3555       C  0.17604148  0.79346294  0.87374893    -0.03100
C3556       C  0.16754567  0.80947953  0.89723050     0.03800
N3557       N  0.15889985  0.83379643  0.89049479     0.66300
H3558       H  0.15802841  0.81287014  0.94513560     0.15200
H3559       H  0.19176566  0.75751624  0.86456542     0.14900
N3560       N  0.19179519  0.73720236  0.92024689     0.74000
O3561       O  0.13597235  0.83782809  0.88852210    -0.39500
O3562       O  0.17375240  0.85170364  0.89144908    -0.39400
O3563       O  0.18666145  0.71949358  0.90260220    -0.40100
O3564       O  0.20629013  0.73365450  0.94260640    -0.40200
C3565       C  0.17169321  0.73992469  0.64603069    -0.12500
C3566       C  0.16185965  0.75455729  0.62227720     0.04500
C3567       C  0.14717928  0.77514447  0.63006436    -0.07800
C3568       C  0.14306397  0.78098946  0.66080361    -0.08500
C3569       C  0.15372009  0.76724385  0.68472189    -0.03100
C3570       C  0.16804469  0.74622113  0.67714754     0.03800
N3571       N  0.17888141  0.73098162  0.70046463     0.66300
H3572       H  0.18266229  0.72382438  0.64043788     0.15200
H3573       H  0.13157324  0.79685176  0.66577923     0.14900
N3574       N  0.13563550  0.79016260  0.60711467     0.74000
O3575       O  0.17147571  0.70907564  0.70375999    -0.39500
O3576       O  0.19905433  0.73739006  0.71258306    -0.39400
O3577       O  0.11239368  0.78974788  0.60474320    -0.40100
O3578       O  0.14752137  0.80807438  0.59578253    -0.40200
C3579       C  0.43038265  0.79753268  0.95882455    -0.12500
C3580       C  0.40772318  0.80115378  0.97392131     0.04500
C3581       C  0.39879381  0.82545252  0.97744249    -0.07800
C3582       C  0.41202544  0.84528492  0.96480847    -0.08500
C3583       C  0.43417065  0.84154333  0.94838219    -0.03100
C3584       C  0.44345450  0.81723492  0.94574721     0.03800
N3585       N  0.46534790  0.81188560  0.92841908     0.66300
H3586       H  0.43753269  0.77910039  0.95591346     0.15200
H3587       H  0.40464586  0.86371356  0.96754598     0.14900
N3588       N  0.37648822  0.83040868  0.99409374     0.74000
O3589       O  0.48480748  0.80560248  0.94237874    -0.39500
O3590       O  0.46389730  0.80879315  0.89961421    -0.39400
O3591       O  0.36418509  0.84001787  0.50470087    -0.40100
O3592       O  0.35676019  0.83468279  0.97954834    -0.40200
C3593       C  0.35387068  0.73014244  0.87000559    -0.12500
C3594       C  0.34330529  0.74693007  0.89094539     0.04500
C3595       C  0.33522961  0.77005698  0.87984420    -0.07800
C3596       C  0.33909267  0.77644809  0.84888806    -0.08500
C3597       C  0.35166257  0.76066099  0.82883990    -0.03100
C3598       C  0.35825113  0.73694381  0.83911894     0.03800
N3599       N  0.37099785  0.72033939  0.81912875     0.66300
H3600       H  0.36024654  0.71231562  0.87807882     0.15200
H3601       H  0.33280886  0.79412969  0.84053768     0.14900
N3602       N  0.32351001  0.78744588  0.89981473     0.74000
O3603       O  0.39431333  0.72060203  0.81795966    -0.39500
O3604       O  0.35921678  0.70345723  0.80570176    -0.39400
O3605       O  0.33617380  0.80431011  0.91200357    -0.40100
O3606       O  0.30021694  0.78860830  0.90080248    -0.40200
C3607       C  0.36591791  0.79434005  0.58842984    -0.12500
C3608       C  0.34884988  0.77675772  0.57812385     0.04500
C3609       C  0.32986434  0.76883271  0.59810009    -0.07800
C3610       C  0.32941159  0.77707487  0.62867787    -0.08500
C3611       C  0.34715562  0.79387127  0.63952541    -0.03100
C3612       C  0.36502903  0.80323302  0.61866534     0.03800
N3613       N  0.38334332  0.82058466  0.62821105     0.66300
H3614       H  0.38052685  0.80068482  0.57311735     0.15200
H3615       H  0.31546047  0.76974694  0.64421379     0.14900
N3616       N  0.31204328  0.75109057  0.58837828     0.74000
O3617       O  0.40370174  0.81307323  0.63882289    -0.39500
O3618       O  0.38058004  0.84315699  0.62203525    -0.39400
O3619       O  0.31259580  0.72954311  0.59943415    -0.40100
O3620       O  0.29350764  0.75804566  0.57301452    -0.40200
C3621       C  0.23745420  0.71300221  0.48830546    -0.12500
C3622       C  0.23136443  0.71443212  0.51977007     0.04500
C3623       C  0.25193385  0.72853411  0.04093989    -0.07800
C3624       C  0.27648860  0.72719246  0.03105576    -0.08500
C3625       C  0.28297010  0.71425421  0.00434692    -0.03100
C3626       C  0.26218125  0.71144771  0.47876296     0.03800
N3627       N  0.26810205  0.71188666  0.44655625     0.66300
H3628       H  0.22303184  0.71441624  0.47110748     0.15200
H3629       H  0.29054938  0.73710546  0.04372828     0.14900
N3630       N  0.24619569  0.74210388  0.06828501     0.74000
O3631       O  0.27822239  0.69337916  0.43430163    -0.39500
O3632       O  0.26727658  0.73199123  0.43185573    -0.39400
O3633       O  0.23939353  0.73083714  0.09242223    -0.40100
O3634       O  0.25025966  0.76498358  0.06925955    -0.40200
C3635       C  0.54211257  0.69313684  0.67829836    -0.12500
C3636       C  0.54558809  0.66840601  0.66946713     0.04500
C3637       C  0.56910038  0.65747396  0.67427491    -0.07800
C3638       C  0.58793065  0.67112376  0.68787553    -0.08500
C3639       C  0.58411037  0.69529604  0.69817468    -0.03100
C3640       C  0.56099602  0.70654512  0.69269341     0.03800
N3641       N  0.55617669  0.73132028  0.70202221     0.66300
H3642       H  0.52435853  0.70198646  0.67490732     0.15200
H3643       H  0.60548340  0.66201042  0.69178029     0.14900
N3644       N  0.57417431  0.63217984  0.66733653     0.74000
O3645       O  0.56389552  0.74907400  0.68570991    -0.39500
O3646       O  0.54196183  0.73542918  0.72459794    -0.39400
O3647       O  0.59280526  0.62706161  0.65091252    -0.40100
O3648       O  0.56524664  0.61560355  0.68462395    -0.40200
C3649       C  0.42508501  0.70874436  0.67440034    -0.12500
C3650       C  0.43507294  0.69125431  0.69485874     0.04500
C3651       C  0.43283099  0.69516548  0.72700494    -0.07800
C3652       C  0.42028299  0.71610841  0.73783333    -0.08500
C3653       C  0.40915867  0.73269742  0.71714826    -0.03100
C3654       C  0.41193065  0.72904258  0.68520301     0.03800
N3655       N  0.40201780  0.74618893  0.66338184     0.66300
H3656       H  0.42677848  0.70629919  0.64964923     0.15200
H3657       H  0.41841151  0.71890663  0.76247424     0.14900
N3658       N  0.44330311  0.67834140  0.74887566     0.74000
O3659       O  0.41548582  0.76347752  0.65342481    -0.39500
O3660       O  0.38202796  0.74130447  0.64977742    -0.39400
O3661       O  0.46081026  0.68536110  0.76588998    -0.40100
O3662       O  0.43192744  0.65871510  0.75557209    -0.40200
C3663       C  0.37583971  0.67002250  0.58377035    -0.12500
C3664       C  0.38147435  0.66816527  0.55226216     0.04500
C3665       C  0.39836970  0.65000844  0.54218399    -0.07800
C3666       C  0.41168285  0.63653902  0.56404304    -0.08500
C3667       C  0.40813052  0.64044076  0.59564872    -0.03100
C3668       C  0.38849847  0.65569911  0.60560700     0.03800
N3669       N  0.38276562  0.65852205  0.63774390     0.66300
H3670       H  0.36252539  0.68361850  0.59150826     0.15200
H3671       H  0.42649019  0.62455351  0.55630052     0.14900
N3672       N  0.40483250  0.64745645  0.51024635     0.74000
O3673       O  0.37988409  0.67975945  0.64894107    -0.39500
O3674       O  0.37627656  0.63995331  0.65345828    -0.39400
O3675       O  0.42728252  0.64825990  0.50218784    -0.40100
O3676       O  0.38894933  0.63966521  0.49138613    -0.40200
C3677       C  0.44205675  0.32969304  0.56579866    -0.12500
C3678       C  0.43065793  0.35281877  0.56337595     0.04500
C3679       C  0.40733407  0.35465707  0.54885246    -0.07800
C3680       C  0.39480748  0.33302016  0.54050624    -0.08500
C3681       C  0.40598010  0.30986397  0.54415951    -0.03100
C3682       C  0.43024496  0.30841615  0.55555944     0.03800
N3683       N  0.44279316  0.28534566  0.55804138     0.66300
H3684       H  0.45996754  0.32800715  0.57669844     0.15200
H3685       H  0.37650318  0.33429156  0.53050300     0.14900
N3686       N  0.39587326  0.37806500  0.54324615     0.74000
O3687       O  0.46161507  0.28139380  0.54149010    -0.39500
O3688       O  0.43761275  0.27077737  0.57992298    -0.39400
O3689       O  0.40626266  0.39334659  0.52536329    -0.40100
O3690       O  0.37349054  0.38131927  0.55051574    -0.40200
C3691       C  0.37505257  0.36475746  0.68429559    -0.12500
C3692       C  0.37997861  0.36734566  0.71582955     0.04500
C3693       C  0.39520626  0.38690371  0.72566251    -0.07800
C3694       C  0.40812674  0.40093910  0.70364295    -0.08500
C3695       C  0.40536667  0.39640864  0.67198320    -0.03100
C3696       C  0.38730212  0.37937317  0.66234838     0.03800
N3697       N  0.38398286  0.37388760  0.63045644     0.66300
H3698       H  0.36336775  0.34980579  0.67649725     0.15200
H3699       H  0.42193549  0.41400185  0.71133392     0.14900
N3700       N  0.40026272  0.39058699  0.75771644     0.74000
O3701       O  0.39457160  0.35520647  0.61932197    -0.39500
O3702       O  0.36571874  0.38306148  0.61648477    -0.39400
O3703       O  0.42207826  0.38845636  0.76763083    -0.40100
O3704       O  0.38375256  0.39952077  0.77503326    -0.40200
C3705       C  0.44005029  0.50576998  0.63719107    -0.12500
C3706       C  0.46045596  0.49704779  0.62010713     0.04500
C3707       C  0.47985358  0.51364486  0.61275612    -0.07800
C3708       C  0.47961697  0.53731164  0.62467833    -0.08500
C3709       C  0.46003756  0.54566391  0.64301123    -0.03100
C3710       C  0.43954971  0.53015360  0.64823079     0.03800
N3711       N  0.41887849  0.53842847  0.66598318     0.66300
H3712       H  0.42488848  0.49348072  0.64282893     0.15200
H3713       H  0.49513047  0.54930457  0.61952223     0.14900
N3714       N  0.50024588  0.50679073  0.59344886     0.74000
O3715       O  0.40179420  0.55044298  0.65305447    -0.39500
O3716       O  0.41634459  0.53145554  0.69364937    -0.39400
O3717       O  0.49786206  0.50726546  0.56447781    -0.40100
O3718       O  0.52145367  0.50400972  0.60503819    -0.40200
C3719       C  0.60836844  0.68503654  0.96182331    -0.12500
C3720       C  0.58337949  0.68761191  0.95357492     0.04500
C3721       C  0.57182411  0.71070917  0.95789578    -0.07800
C3722       C  0.58551546  0.73066186  0.96906825    -0.08500
C3723       C  0.61082593  0.72839028  0.97581293    -0.03100
C3724       C  0.62205323  0.70496065  0.97292879     0.03800
N3725       N  0.64987265  0.70423251  0.47130223     0.66300
H3726       H  0.61768256  0.66750169  0.95903665     0.15200
H3727       H  0.57628106  0.74819139  0.97189057     0.14900
N3728       N  0.54634140  0.71444601  0.95059148     0.74000
O3729       O  0.65921468  0.69674460  0.49630291    -0.39500
O3730       O  0.66332997  0.70638931  0.44756637    -0.39400
O3731       O  0.53016032  0.71228088  0.97150115    -0.40100
O3732       O  0.54050385  0.72374749  0.92486645    -0.40200
C3733       C  0.62690127  0.65859842  0.85890828    -0.12500
C3734       C  0.61039181  0.64017662  0.84970953     0.04500
C3735       C  0.60769757  0.63512792  0.81803302    -0.07800
C3736       C  0.61989374  0.64993016  0.79610997    -0.08500
C3737       C  0.63460332  0.66982639  0.80538052    -0.03100
C3738       C  0.63876777  0.67361527  0.83705964     0.03800
N3739       N  0.65284932  0.69422868  0.84736925     0.66300
H3740       H  0.62844742  0.66313385  0.88319452     0.15200
H3741       H  0.61594827  0.64736398  0.77180384     0.14900
N3742       N  0.59003954  0.61738014  0.80783367     0.74000
O3743       O  0.64331172  0.70961982  0.86564359    -0.39500
O3744       O  0.67577842  0.69486688  0.84217285    -0.39400
O3745       O  0.57105781  0.62435098  0.79337761    -0.40100
O3746       O  0.59499676  0.59470644  0.80964378    -0.40200
C3747       C  0.47175696  0.68757891  0.93323817    -0.12500
C3748       C  0.46938031  0.66283461  0.92474636     0.04500
C3749       C  0.44567444  0.65209971  0.92342732    -0.07800
C3750       C  0.42491643  0.66595718  0.93201137    -0.08500
C3751       C  0.42755754  0.69010881  0.94288600    -0.03100
C3752       C  0.45114506  0.70115773  0.94265243     0.03800
N3753       N  0.45437179  0.72636307  0.95103601     0.66300
H3754       H  0.48982773  0.69621934  0.93341924     0.15200
H3755       H  0.40679842  0.65745345  0.93146545     0.14900
N3756       N  0.44238427  0.62740007  0.91284814     0.74000
O3757       O  0.45969221  0.73167663  0.97855588    -0.39500
O3758       O  0.45785016  0.74217707  0.93001206    -0.39400
O3759       O  0.43291578  0.61139183  0.93051033    -0.40100
O3760       O  0.44601886  0.62238319  0.88477307    -0.40200
C3761       C  0.54530790  0.61355156  0.52567145    -0.12500
C3762       C  0.53118105  0.59971524  0.50479099     0.04500
C3763       C  0.50943760  0.58781426  0.51564239    -0.07800
C3764       C  0.50167085  0.59115959  0.54623647    -0.08500
C3765       C  0.51509284  0.60632675  0.56605125    -0.03100
C3766       C  0.53738478  0.61692410  0.55601540     0.03800
N3767       N  0.55214064  0.63114338  0.57662199     0.66300
H3768       H  0.56218117  0.62261467  0.51823480     0.15200
H3769       H  0.48446414  0.58293493  0.55405410     0.14900
N3770       N  0.48498460  0.58940207  0.99223840     0.74000
O3771       O  0.56237435  0.62079258  0.59935183    -0.39500
O3772       O  0.55547675  0.65384551  0.57176913    -0.39400
O3773       O  0.47952832  0.56735345  0.98617201    -0.40100
O3774       O  0.47076877  0.60651794  0.98360057    -0.40200
C3775       C  0.51474026  0.63531546  0.79265647    -0.12500
C3776       C  0.50598799  0.61882579  0.81514208     0.04500
C3777       C  0.48925754  0.60005433  0.80645639    -0.07800
C3778       C  0.48192796  0.59813601  0.77557243    -0.08500
C3779       C  0.49166613  0.61412613  0.75316138    -0.03100
C3780       C  0.50797684  0.63307913  0.76193687     0.03800
N3781       N  0.51755147  0.65055689  0.74005508     0.66300
H3782       H  0.52697407  0.65029676  0.79885867     0.15200
H3783       H  0.46952212  0.58343723  0.76885851     0.14900
N3784       N  0.48040346  0.58220885  0.82822378     0.74000
O3785       O  0.50287445  0.66360445  0.72435958    -0.39500
O3786       O  0.54032940  0.65566321  0.73997172    -0.39400
O3787       O  0.45796951  0.58238109  0.83634898    -0.40100
O3788       O  0.49389978  0.56412277  0.83546953    -0.40200
C3789       C  0.47438667  0.35568184  0.81332168    -0.12500
C3790       C  0.47123325  0.37067330  0.83907870     0.04500
C3791       C  0.44805595  0.37166169  0.85385515    -0.07800
C3792       C  0.42821677  0.35772655  0.84245518    -0.08500
C3793       C  0.43108437  0.34286088  0.81611085    -0.03100
C3794       C  0.45471771  0.34195752  0.80157684     0.03800
N3795       N  0.45907313  0.32788680  0.77425396     0.66300
H3796       H  0.49220307  0.35495911  0.80184299     0.15200
H3797       H  0.41038884  0.35905160  0.85383071     0.14900
N3798       N  0.44430540  0.38722554  0.87996230     0.74000
O3799       O  0.45552894  0.33769077  0.74815007    -0.39500
O3800       O  0.47108530  0.30800091  0.77600760    -0.39400
O3801       O  0.43584219  0.40870046  0.87626119    -0.40100
O3802       O  0.44794450  0.37900183  0.90686423    -0.40200
C3803       C  0.52625086  0.40453415  0.71587447    -0.12500
C3804       C  0.51312307  0.42381808  0.70198235     0.04500
C3805       C  0.50994979  0.44616958  0.71809032    -0.07800
C3806       C  0.51877422  0.44828456  0.74839145    -0.08500
C3807       C  0.53150381  0.42869989  0.76242734    -0.03100
C3808       C  0.53555740  0.40680543  0.74565732     0.03800
N3809       N  0.54739602  0.38592808  0.75938907     0.66300
H3810       H  0.52897609  0.38732427  0.70370823     0.15200
H3811       H  0.51553834  0.46516865  0.76104137     0.14900
N3812       N  0.49692678  0.46640688  0.70453838     0.74000
O3813       O  0.53493579  0.37138040  0.77609050    -0.39500
O3814       O  0.56874250  0.37970709  0.75049126    -0.39400
O3815       O  0.47450608  0.47001950  0.71131411    -0.40100
O3816       O  0.50856702  0.48231106  0.68886837    -0.40200
C3817       C  0.51238688  0.40125287  0.97507466    -0.12500
C3818       C  0.50532226  0.41821575  0.95224760     0.04500
C3819       C  0.49020072  0.43842296  0.96058019    -0.07800
C3820       C  0.48253366  0.44110565  0.99143025    -0.08500
C3821       C  0.49000485  0.43540557  0.51434340    -0.03100
C3822       C  0.51439967  0.44052537  0.50437699     0.03800
N3823       N  0.53259163  0.44991290  0.52512324     0.66300
H3824       H  0.52343505  0.38528853  0.96913780     0.15200
H3825       H  0.47141784  0.45688712  0.99791940     0.14900
N3826       N  0.48366288  0.45701847  0.93857076     0.74000
O3827       O  0.54789143  0.43539300  0.53752444    -0.39500
O3828       O  0.53599372  0.47285920  0.52688852    -0.39400
O3829       O  0.46125561  0.46045156  0.93174965    -0.40100
O3830       O  0.49979722  0.47219373  0.92933730    -0.40200
C3831       C  0.56311341  0.49801594  0.90429231    -0.12500
C3832       C  0.56021365  0.49192140  0.87306626     0.04500
C3833       C  0.55823668  0.51082113  0.85087913    -0.07800
C3834       C  0.55711761  0.53541391  0.86039901    -0.08500
C3835       C  0.55864286  0.54148119  0.89179969    -0.03100
C3836       C  0.56263484  0.52268406  0.91378666     0.03800
N3837       N  0.56381108  0.52816558  0.94601218     0.66300
H3838       H  0.56433643  0.48350734  0.92151970     0.15200
H3839       H  0.55413941  0.54978101  0.84332729     0.14900
N3840       N  0.55527787  0.50515339  0.81892236     0.74000
O3841       O  0.54437615  0.53388614  0.96053807    -0.39500
O3842       O  0.58362392  0.52452752  0.96064137    -0.39400
O3843       O  0.53390506  0.50415116  0.80740867    -0.40100
O3844       O  0.57400996  0.50404220  0.80151847    -0.40200
C3845       C  0.59936859  0.21573306  0.53439060    -0.12500
C3846       C  0.61210594  0.23124568  0.55479444     0.04500
C3847       C  0.61136374  0.22616041  0.58671080    -0.07800
C3848       C  0.59781593  0.20600818  0.59769568    -0.08500
C3849       C  0.58534372  0.19020589  0.57739598    -0.03100
C3850       C  0.58626526  0.19511199  0.54539914     0.03800
N3851       N  0.57338305  0.17985524  0.52398990     0.66300
H3852       H  0.59973677  0.21956355  0.50980449     0.15200
H3853       H  0.59747458  0.20242886  0.62235130     0.14900
N3854       N  0.62352945  0.24180789  0.60837756     0.74000
O3855       O  0.54966395  0.18790927  0.01867735    -0.39500
O3856       O  0.58530425  0.16533010  0.50681180    -0.39400
O3857       O  0.61084487  0.25462088  0.62680757    -0.40100
O3858       O  0.64650434  0.23966045  0.61261019    -0.40200
C3859       C  0.62411434  0.38854741  0.97225496    -0.12500
C3860       C  0.63815881  0.36783672  0.96398629     0.04500
C3861       C  0.64081654  0.36191851  0.93254299    -0.07800
C3862       C  0.62700389  0.37468624  0.91040530    -0.08500
C3863       C  0.61052969  0.39330533  0.91920048    -0.03100
C3864       C  0.61005166  0.40120986  0.95009161     0.03800
N3865       N  0.59303726  0.41976966  0.95992943     0.66300
H3866       H  0.62168452  0.39298538  0.99636129     0.15200
H3867       H  0.62733498  0.36841543  0.88668206     0.14900
N3868       N  0.65516058  0.34116313  0.92313795     0.74000
O3869       O  0.57051259  0.41443588  0.96368685    -0.39500
O3870       O  0.60108335  0.44015633  0.96950742    -0.39400
O3871       O  0.64426415  0.32212455  0.91367870    -0.40100
O3872       O  0.67773123  0.34415447  0.91672213    -0.40200
C3873       C  0.56018423  0.33270160  0.56848786    -0.12500
C3874       C  0.58400322  0.34230760  0.57336733     0.04500
C3875       C  0.58642952  0.36413330  0.59079382    -0.07800
C3876       C  0.56533778  0.37656465  0.60108429    -0.08500
C3877       C  0.54150630  0.36761742  0.59497100    -0.03100
C3878       C  0.53901463  0.34516457  0.57888264     0.03800
N3879       N  0.51522145  0.33559642  0.57100904     0.66300
H3880       H  0.55782094  0.31607695  0.55506197     0.15200
H3881       H  0.56771314  0.39341223  0.61408059     0.14900
N3882       N  0.61015821  0.37399096  0.59837015     0.74000
O3883       O  0.50212082  0.34674527  0.55133224    -0.39500
O3884       O  0.50910259  0.31423600  0.57979338    -0.39400
O3885       O  0.61674228  0.39462094  0.58757071    -0.40100
O3886       O  0.62316198  0.36359693  0.61876876    -0.40200
C3887       C  0.76875279  0.32330109  0.98282055    -0.12500
C3888       C  0.78546653  0.31833901  0.00678419     0.04500
C3889       C  0.77501784  0.30851084  0.53801634    -0.07800
C3890       C  0.74961738  0.30912667  0.54370811    -0.08500
C3891       C  0.73344894  0.31920018  0.52202763    -0.03100
C3892       C  0.74320137  0.32336540  0.98854948     0.03800
N3893       N  0.72638200  0.32771815  0.96375853     0.66300
H3894       H  0.77548361  0.32602904  0.95944169     0.15200
H3895       H  0.74235588  0.30063870  0.56456910     0.14900
N3896       N  0.79076347  0.29778348  0.56085217     0.74000
O3897       O  0.71211661  0.34610286  0.96461907    -0.39500
O3898       O  0.72447793  0.31229429  0.94218676    -0.39400
O3899       O  0.79428415  0.30924088  0.58572570    -0.40100
O3900       O  0.79539005  0.27500585  0.55981528    -0.40200
C3901       C  0.93321732  0.23417397  0.96540877    -0.12500
C3902       C  0.90825496  0.23232550  0.97401294     0.04500
C3903       C  0.89651633  0.20910195  0.97312461    -0.07800
C3904       C  0.90968462  0.18838104  0.96310391    -0.08500
C3905       C  0.93403019  0.19057852  0.95221498    -0.03100
C3906       C  0.94599118  0.21365723  0.95387856     0.03800
N3907       N  0.97111048  0.21651568  0.94411900     0.66300
H3908       H  0.94251602  0.25184793  0.96636367     0.15200
H3909       H  0.90028349  0.17077633  0.96194007     0.14900
N3910       N  0.87155791  0.20609044  0.48355839     0.74000
O3911       O  0.97578420  0.22197106  0.91634442    -0.39500
O3912       O  0.98785191  0.21870573  0.96413406    -0.39400
O3913       O  0.85476752  0.21216916  0.46484542    -0.40100
O3914       O  0.86623369  0.19217359  0.50603902    -0.40200
C3915       C  0.89769354  0.39247041  0.54264197    -0.12500
C3916       C  0.88210630  0.37318315  0.55228646     0.04500
C3917       C  0.87720263  0.37000924  0.58397729    -0.07800
C3918       C  0.88974775  0.38436017  0.60553383    -0.08500
C3919       C  0.90748122  0.40153895  0.59607149    -0.03100
C3920       C  0.91047575  0.40667308  0.56440218     0.03800
N3921       N  0.92847028  0.42416352  0.55405774     0.66300
H3922       H  0.90195706  0.39477599  0.51831462     0.15200
H3923       H  0.88774532  0.38005262  0.62987540     0.14900
N3924       N  0.86232708  0.35001862  0.59478311     0.74000
O3925       O  0.95067243  0.41762847  0.55037167    -0.39500
O3926       O  0.92158258  0.44510644  0.54469053    -0.39400
O3927       O  0.87096948  0.33525888  0.61460012    -0.40100
O3928       O  0.83960419  0.34939863  0.58830146    -0.40200
C3929       C  0.95741778  0.33476114  0.95209115    -0.12500
C3930       C  0.93329378  0.34352793  0.94673414     0.04500
C3931       C  0.93011358  0.36422409  0.92712320    -0.07800
C3932       C  0.95081858  0.37642928  0.91511973    -0.08500
C3933       C  0.97487656  0.36826815  0.92151462    -0.03100
C3934       C  0.97811294  0.34690669  0.93972645     0.03800
N3935       N  0.00225620  0.33843285  0.94790235     0.66300
H3936       H  0.96039502  0.31905107  0.96716444     0.15200
H3937       H  0.94800981  0.39251594  0.90061263     0.14900
N3938       N  0.90606722  0.37321126  0.91912671     0.74000
O3939       O  0.01277331  0.34702522  0.97146153    -0.39500
O3940       O  0.01140661  0.31996511  0.93445920    -0.39400
O3941       O  0.90049623  0.39542701  0.92410580    -0.40100
O3942       O  0.89188525  0.36011358  0.90298062    -0.40200
C3943       C  0.65083151  0.29999711  0.64608599    -0.12500
C3944       C  0.67145303  0.29324570  0.62832740     0.04500
C3945       C  0.68982215  0.27813887  0.64174315    -0.07800
C3946       C  0.68672074  0.26927659  0.67203051    -0.08500
C3947       C  0.66521098  0.27474447  0.68888229    -0.03100
C3948       C  0.64731258  0.29060776  0.67580572     0.03800
N3949       N  0.62515850  0.29705903  0.69209685     0.66300
H3950       H  0.63642002  0.31140960  0.63615887     0.15200
H3951       H  0.70066669  0.25728741  0.68191543     0.14900
N3952       N  0.71155287  0.27149133  0.62486362     0.74000
O3953       O  0.60679962  0.28272099  0.69123903    -0.39500
O3954       O  0.62189554  0.31909626  0.70029997    -0.39400
O3955       O  0.73030375  0.28530846  0.62557562    -0.40100
O3956       O  0.71327169  0.25031105  0.61315941    -0.40200
C3957       C  0.68224268  0.24095861  0.89907188    -0.12500
C3958       C  0.66468183  0.24746186  0.87670784     0.04500
C3959       C  0.64307464  0.26014944  0.88569861    -0.07800
C3960       C  0.63983065  0.26682875  0.91643399    -0.08500
C3961       C  0.65780815  0.26164289  0.93878180    -0.03100
C3962       C  0.67902463  0.24802209  0.93005370     0.03800
N3963       N  0.69783581  0.24206195  0.95193768     0.66300
H3964       H  0.69884044  0.23114454  0.89229547     0.15200
H3965       H  0.62300787  0.27645194  0.92276690     0.14900
N3966       N  0.62409977  0.26632651  0.86391426     0.74000
O3967       O  0.69558669  0.22314819  0.96878042    -0.39500
O3968       O  0.71802799  0.25371429  0.95158046    -0.39400
O3969       O  0.61481531  0.24979595  0.84718260    -0.40100
O3970       O  0.61421529  0.28739434  0.86448710    -0.40200
C3971       C  0.61781113  0.14951583  0.73096632    -0.12500
C3972       C  0.63574368  0.16580971  0.71954442     0.04500
C3973       C  0.64113115  0.16633728  0.68772694    -0.07800
C3974       C  0.62647935  0.15259343  0.66743180    -0.08500
C3975       C  0.60640021  0.13870023  0.67861860    -0.03100
C3976       C  0.60294159  0.13613373  0.71079365     0.03800
N3977       N  0.58258768  0.12232988  0.72309445     0.66300
H3978       H  0.61334449  0.14935690  0.75538406     0.15200
H3979       H  0.62922157  0.15479142  0.64276073     0.14900
N3980       N  0.66002267  0.18231941  0.67576879     0.74000
O3981       O  0.58353525  0.09910779  0.72374180    -0.39500
O3982       O  0.56484331  0.13332559  0.73612620    -0.39400
O3983       O  0.68102507  0.18296235  0.68838072    -0.40100
O3984       O  0.65563582  0.19620315  0.65298268    -0.40200
C3985       C  0.56829090  0.15303394  0.84132694    -0.12500
C3986       C  0.54561909  0.16550468  0.84315195     0.04500
C3987       C  0.54459618  0.19072555  0.83515102    -0.07800
C3988       C  0.56592117  0.20262616  0.82416833    -0.08500
C3989       C  0.58861741  0.19013053  0.82248330    -0.03100
C3990       C  0.58985146  0.16522030  0.83182493     0.03800
N3991       N  0.61259174  0.15174771  0.83056069     0.66300
H3992       H  0.56934619  0.13373950  0.84779342     0.15200
H3993       H  0.56475174  0.22170799  0.81678470     0.14900
N3994       N  0.52188607  0.20418034  0.83674404     0.74000
O3995       O  0.62938645  0.15632674  0.84985441    -0.39500
O3996       O  0.61393704  0.13236492  0.81466080    -0.39400
O3997       O  0.51560726  0.21428748  0.86175862    -0.40100
O3998       O  0.51058621  0.20965814  0.81221281    -0.40200
C3999       C  0.58401426  0.30034548  0.80334663    -0.12500
C4000       C  0.60818823  0.30321173  0.79183568     0.04500
C4001       C  0.61849405  0.32719607  0.79064291    -0.07800
C4002       C  0.60521062  0.34717725  0.80233769    -0.08500
C4003       C  0.58173710  0.34409903  0.81576496    -0.03100
C4004       C  0.57079289  0.32042265  0.81528183     0.03800
N4005       N  0.54659028  0.31620327  0.82756511     0.66300
H4006       H  0.57557014  0.28224390  0.80414301     0.15200
H4007       H  0.61390733  0.36516448  0.80186293     0.14900
N4008       N  0.64266982  0.33173302  0.77832372     0.74000
O4009       O  0.52796406  0.31872152  0.81037973    -0.39500
O4010       O  0.54408068  0.30660683  0.85399112    -0.39400
O4011       O  0.64488784  0.34336874  0.75316856    -0.40100
O4012       O  0.66122701  0.32955688  0.79571440    -0.40200
C4013       C  0.85675425  0.23666930  0.62484127    -0.12500
C4014       C  0.84627609  0.25388192  0.64523390     0.04500
C4015       C  0.84021207  0.27762857  0.63431468    -0.07800
C4016       C  0.84641671  0.28425937  0.60416002    -0.08500
C4017       C  0.85836515  0.26770130  0.58457451    -0.03100
C4018       C  0.86310587  0.24344650  0.59457709     0.03800
N4019       N  0.87570271  0.22610997  0.57513950     0.66300
H4020       H  0.86177502  0.21846961  0.63310578     0.15200
H4021       H  0.84152992  0.30232965  0.59567191     0.14900
N4022       N  0.82765237  0.29507944  0.65349203     0.74000
O4023       O  0.89512488  0.23237974  0.56085384    -0.39500
O4024       O  0.86921783  0.20376921  0.57519439    -0.39400
O4025       O  0.83772310  0.31538757  0.65988741    -0.40100
O4026       O  0.80589830  0.29076017  0.66268763    -0.40200
C4027       C  0.86475575  0.30358598  0.87657750    -0.12500
C4028       C  0.84641779  0.29334122  0.89576101     0.04500
C4029       C  0.82974128  0.27602426  0.88320165    -0.07800
C4030       C  0.83206503  0.26903430  0.85215360    -0.08500
C4031       C  0.85111246  0.27867839  0.83365154    -0.03100
C4032       C  0.86718890  0.29650491  0.84584386     0.03800
N4033       N  0.88622594  0.30746434  0.82723918     0.66300
H4034       H  0.87791119  0.31664880  0.88568547     0.15200
H4035       H  0.81977423  0.25513670  0.84295580     0.14900
N4036       N  0.81086930  0.26487524  0.90175421     0.74000
O4037       O  0.88055285  0.32076626  0.80435164    -0.39500
O4038       O  0.90860540  0.30543167  0.83502162    -0.39400
O4039       O  0.78900238  0.27290725  0.90034774    -0.40100
O4040       O  0.81508748  0.24462111  0.91517572    -0.40200
C4041       C  0.77821967  0.22533579  0.78430351    -0.12500
C4042       C  0.78515300  0.21730465  0.75485939     0.04500
C4043       C  0.76719983  0.20770320  0.73480925    -0.07800
C4044       C  0.74229547  0.20714595  0.74413346    -0.08500
C4045       C  0.73524202  0.21618351  0.77320740    -0.03100
C4046       C  0.75349073  0.22473514  0.79366457     0.03800
N4047       N  0.74698031  0.23362424  0.82365222     0.66300
H4048       H  0.79198665  0.23299572  0.79966245     0.15200
H4049       H  0.72831022  0.20110392  0.72798578     0.14900
N4050       N  0.77371737  0.20067053  0.70407014     0.74000
O4051       O  0.74156825  0.21854285  0.84489329    -0.39500
O4052       O  0.74938843  0.25618773  0.82986444    -0.39400
O4053       O  0.78638218  0.18148561  0.69954934    -0.40100
O4054       O  0.76891790  0.21488275  0.68173271    -0.40200
C4055       C  0.87663310  0.17518066  0.83493398    -0.12500
C4056       C  0.88156345  0.17204623  0.80345425     0.04500
C4057       C  0.89663720  0.15230715  0.79370864    -0.07800
C4058       C  0.90960032  0.13868855  0.81583525    -0.08500
C4059       C  0.90692268  0.14384951  0.84735530    -0.03100
C4060       C  0.88887108  0.16095795  0.85709633     0.03800
N4061       N  0.88532018  0.16652646  0.88914303     0.66300
H4062       H  0.86472856  0.19011566  0.84237349     0.15200
H4063       H  0.92341556  0.12550982  0.80831193     0.14900
N4064       N  0.90149674  0.14805704  0.76161694     0.74000
O4065       O  0.88468173  0.18867108  0.89790371    -0.39500
O4066       O  0.87911607  0.14966616  0.90779116    -0.39400
O4067       O  0.92340532  0.14861487  0.75146584    -0.40100
O4068       O  0.88430077  0.14084859  0.74422894    -0.40200
C4069       C  0.97462442  0.18323985  0.70368568    -0.12500
C4070       C  0.97203747  0.17164204  0.67516867     0.04500
C4071       C  0.94978323  0.17427010  0.65859645    -0.07800
C4072       C  0.92998925  0.18735540  0.67185842    -0.08500
C4073       C  0.93220991  0.19852036  0.70098497    -0.03100
C4074       C  0.95522427  0.19684889  0.71652645     0.03800
N4075       N  0.95920815  0.20835323  0.74570737     0.66300
H4076       H  0.99183061  0.18148309  0.71630159     0.15200
H4077       H  0.91273473  0.18867432  0.65932203     0.14900
N4078       N  0.94677021  0.16331017  0.62877814     0.74000
O4079       O  0.95607796  0.19613409  0.77028172    -0.39500
O4080       O  0.97002390  0.22892910  0.74672913    -0.39400
O4081       O  0.92682088  0.15250837  0.62217243    -0.40100
O4082       O  0.96255769  0.16719659  0.60776069    -0.40200
C4083       C  0.89374499  0.33173458  0.72332654    -0.12500
C4084       C  0.90701534  0.30971849  0.72774284     0.04500
C4085       C  0.93260438  0.30954571  0.72100108    -0.07800
C4086       C  0.94394022  0.33064670  0.70876146    -0.08500
C4087       C  0.93045308  0.35239122  0.70329661    -0.03100
C4088       C  0.90513470  0.35296128  0.71157043     0.03800
N4089       N  0.89042006  0.37462851  0.70747387     0.66300
H4090       H  0.87417850  0.33254921  0.72873495     0.15200
H4091       H  0.96345491  0.32979330  0.70305457     0.14900
N4092       N  0.94735183  0.28802842  0.72580640     0.74000
O4093       O  0.87249322  0.37432918  0.68890735    -0.39500
O4094       O  0.89222016  0.39204297  0.72654125    -0.39400
O4095       O  0.95361165  0.27493640  0.70307669    -0.40100
O4096       O  0.95710424  0.28424070  0.75182520    -0.40200
loop_ 
_geom_bond_atom_site_label_1 
_geom_bond_atom_site_label_2 
_geom_bond_distance 
_geom_bond_site_symmetry_2 
_ccdc_geom_bond_type 
O1           C16   1.262       .  A
O1           Al9   1.907       .  S
C2           O12   1.257       .  A
C2            O3   1.261       .  A
C2         C1983   1.460       .  S
O3           Al5   1.911       .  S
O4            C6   1.263       .  A
O4           Al5   1.887       .  S
Al5          O13   1.901       .  S
Al5          O15   1.905       .  S
Al5          O14   1.773       .  S
C6           O19   1.264       .  A
C6         C2008   1.474       .  S
O7           C17   1.259       .  A
O7           Al9   1.901       .  S
O8           C21   1.258       .  A
O8          Al18   1.868       .  S
Al9          O22   1.920       .  S
Al9          O19   1.918       .  S
Al9          O14   1.785       .  S
O10          C17   1.258       .  A
O10         Al18   1.894       .  S
O11          C20   1.265       .  A
O11         Al18   1.916       .  S
O12         Al18   1.893       .  S
O13          C20   1.262       .  A
O14         Al18   1.776       .  S
O15          C16   1.259       .  A
C16        C2025   1.484       .  S
C17        C1994   1.464       .  S
C20        C2036   1.487       .  S
C21          O22   1.265       .  A
C21        C1966   1.471       .  S
O23          C38   1.260       .  A
O23         Al31   1.897       .  S
C24          O34   1.265       .  A
C24          O25   1.265       .  A
C24        C1899   1.479       .  S
O25         Al27   1.918       .  S
O26          C28   1.261       .  A
O26         Al27   1.891       .  S
Al27         O35   1.918       .  S
Al27         O37   1.910       .  S
Al27         O36   1.772       .  S
C28          O41   1.260       .  A
C28        C1924   1.463       .  S
O29          C39   1.258       .  A
O29         Al31   1.907       .  S
O30          C43   1.261       .  A
O30         Al40   1.878       .  S
Al31         O44   1.933       .  S
Al31         O41   1.907       .  S
Al31         O36   1.791       .  S
O32          C39   1.259       .  A
O32         Al40   1.899       .  S
O33          C42   1.259       .  A
O33         Al40   1.911       .  S
O34         Al40   1.911       .  S
O35          C42   1.263       .  A
O36         Al40   1.778       .  S
O37          C38   1.262       .  A
C38        C1941   1.476       .  S
C39        C1997   1.474       .  S
C42        C1952   1.491       .  S
C43          O44   1.266       .  A
C43        C1910   1.467       .  S
O45          C60   1.260       .  A
O45         Al53   1.885       .  S
C46          O56   1.259       .  A
C46          O47   1.262       .  A
C46        C1980   1.480       .  S
O47         Al49   1.916       .  S
O48          C50   1.257       .  A
O48         Al49   1.888       .  S
Al49         O57   1.872       .  S
Al49       O2107   1.915       .  S
Al49         O58   1.782       .  S
C50          O63   1.262       .  A
C50        C1854   1.475       .  S
O51          C61   1.262       .  A
O51       Al2101   1.890       .  S
O52          C65   1.263       .  A
O52       Al2110   1.915   1_554  S
Al53         O66   1.917       .  S
Al53       O2099   1.896   1_554  S
Al53       O2111   1.927       .  S
Al53       O2106   1.776   1_554  S
O54          C61   1.268       .  A
O54         Al62   1.928       .  S
O55          C64   1.265       .  A
O55         Al62   1.932       .  S
O56         Al62   1.874       .  S
O57          C64   1.255       .  A
O58         Al62   1.784       .  S
O58       Al2101   1.775       .  S
O59          C60   1.261       .  A
O59       Al2097   1.914   1_554  S
C60        C1969   1.460       .  S
C61        C1882   1.487       .  S
Al62       O2100   1.908       .  S
O63       Al2101   1.924       .  S
C64        C1840   1.476       .  S
C65          O66   1.264       .  A
C65        C1868   1.474       .  S
O67          C82   1.257       .  A
O67       Al2123   1.862       .  S
C68          O78   1.263       .  A
C68          O69   1.267       .  A
C68        C1896   1.483       .  S
O69         Al71   1.935       .  S
O70          C72   1.257       .  A
O70         Al71   1.883       .  S
Al71         O79   1.886       .  S
Al71       O2129   1.922   1_554  S
Al71         O80   1.783       .  S
C72          O85   1.261       .  A
C72        C1798   1.477       .  S
O73          C83   1.261       .  A
O73         Al75   1.909       .  S
O74        C2135   1.265   1_554  A
O74         Al84   1.914       .  S
Al75         O85   1.921       .  S
Al75       O2115   1.871   1_554  S
Al75       O2136   1.916   1_554  S
Al75         O80   1.777       .  S
O76          C83   1.260       .  A
O76         Al84   1.910       .  S
O77          C86   1.259       .  A
O77         Al84   1.920       .  S
O78         Al84   1.888       .  S
O79          C86   1.255       .  A
O80         Al84   1.787       .  S
O81          C82   1.264       .  A
O81       Al2119   1.929       .  S
C82        C1913   1.480       .  S
C83        C1826   1.489       .  S
C86        C1843   1.463       .  S
C87          O88   1.265       .  A
C87        O2122   1.263       .  A
C87        C1812   1.465       .  S
O88       Al2123   1.911       .  S
O89         C104   1.260       .  A
O89         Al97   1.886       .  S
C90         O100   1.260       .  A
C90          O91   1.264       .  A
C90        C1759   1.481       .  S
O91         Al93   1.922       .  S
O92          C94   1.254       .  A
O92         Al93   1.877       .  S
Al93        O101   1.869       .  S
Al93        O103   1.920       .  S
Al93        O102   1.788       .  S
C94         O107   1.262       .  A
C94        C1742   1.464       .  S
O95         C105   1.264       .  A
O95         Al97   1.915       .  S
O96         C109   1.261       .  A
O96        Al106   1.911       .  S
Al97        O110   1.907       .  S
Al97        O107   1.917       .  S
Al97        O102   1.779       .  S
O98         C105   1.266       .  A
O98        Al106   1.918       .  S
O99         C108   1.260       .  A
O99        Al106   1.922       .  S
O100       Al106   1.881       .  S
O101        C108   1.254       .  A
O102       Al106   1.786       .  S
O103        C104   1.262       .  A
C104       C1770   1.464       .  S
C105       C1955   1.495       .  S
C108       C1784   1.460       .  S
C109        O110   1.262       .  A
C109       C1815   1.467       .  S
O111        C126   1.261       .  A
O111       Al119   1.879       .  S
C112        O122   1.262       .  A
C112        O113   1.263       .  A
C112       C3762   1.482       .  S
O113       Al115   1.914       .  S
O114        C116   1.258       .  A
O114       Al115   1.892       .  S
Al115       O123   1.873       .  S
Al115       O125   1.908       .  S
Al115       O124   1.789       .  S
C116        O129   1.259       .  A
C116       C1700   1.468       .  S
O117        C127   1.260       .  A
O117       Al119   1.899       .  S
O118        C131   1.262       .  A
O118       Al128   1.908       .  S
Al119       O132   1.904       .  S
Al119       O129   1.901       .  S
Al119       O124   1.774       .  S
O120        C127   1.264       .  A
O120       Al128   1.924       .  S
O121        C130   1.261       .  A
O121       Al128   1.924       .  S
O122       Al128   1.881       .  S
O123        C130   1.256       .  A
O124       Al128   1.791       .  S
O125        C126   1.259       .  A
C126       C1728   1.481       .  S
C127       C1672   1.489       .  S
C130       C1787   1.478       .  S
C131        O132   1.262       .  A
C131       C1686   1.464       .  S
O133        C148   1.262       .  A
O133       Al141   1.911       .  S
C134        O144   1.263       .  A
C134        O135   1.264       .  A
C134       C1756   1.470       .  S
O135       Al137   1.910       .  S
O136        C138   1.262       .  A
O136       Al137   1.886       .  S
Al137       O145   1.908       .  S
Al137       O147   1.901       .  S
Al137       O146   1.768       .  S
C138        O151   1.263       .  A
C138       C1647   1.470       .  S
O139        C149   1.261       .  A
O139       Al141   1.914       .  S
O140        C153   1.259       .  A
O140       Al150   1.869       .  S
Al141       O154   1.933       .  S
Al141       O151   1.921       .  S
Al141       O146   1.786       .  S
O142        C149   1.260       .  A
O142       Al150   1.901       .  S
O143        C152   1.264       .  A
O143       Al150   1.914       .  S
O144       Al150   1.907       .  S
O145        C152   1.262       .  A
O146       Al150   1.774       .  S
O147        C148   1.261       .  A
C148       C1630   1.485       .  S
C149       C1658   1.479       .  S
C152       C1829   1.489       .  S
C153        O154   1.266       .  A
C153       C1773   1.467       .  S
O155        C170   1.261       .  A
O155       Al163   1.901       .  S
C156        O166   1.259       .  A
C156        O157   1.264       .  A
C156       C1717   1.461       .  S
O157       Al159   1.920       .  S
O158        C160   1.259       .  A
O158       Al159   1.873       .  S
Al159       O167   1.898       .  S
Al159       O169   1.910       .  S
Al159       O168   1.768       .  S
C160        O173   1.265       .  A
C160       C1619   1.473       .  S
O161        C171   1.259       .  A
O161       Al163   1.905       .  S
O162        C175   1.259       .  A
O162       Al172   1.866       .  S
Al163       O176   1.936       .  S
Al163       O173   1.930       .  S
Al163       O168   1.789       .  S
O164        C171   1.262       .  A
O164       Al172   1.911       .  S
O165        C174   1.262       .  A
O165       Al172   1.923       .  S
O166       Al172   1.890       .  S
O167        C174   1.261       .  A
O168       Al172   1.776       .  S
O169        C170   1.264       .  A
C170       C1602   1.483       .  S
C171       C1661   1.472       .  S
C174       C1588   1.490       .  S
C175        O176   1.267       .  A
C175       C1731   1.471       .  S
O177        C192   1.261       .  A
O177       Al185   1.905       .  S
C178        O188   1.261       .  A
C178        O179   1.262       .  A
C178       C1560   1.466       .  S
O179       Al181   1.916       .  S
O180        C182   1.261       .  A
O180       Al181   1.893       .  S
Al181      O2237   1.895   1_554  S
Al181      O2239   1.900   1_554  S
Al181      O2238   1.776   1_554  S
C182        O195   1.263       .  A
C182       C1616   1.472       .  S
O183        C193   1.257       .  A
O183       Al185   1.904       .  S
O184        C197   1.259       .  A
O184       Al194   1.877       .  S
Al185       O198   1.927       .  S
Al185      O2243   1.911       .  S
Al185       O190   1.788       .  S
O186        C193   1.259       .  A
O186       Al194   1.903       .  S
O187        C196   1.264       .  A
O187       Al194   1.921       .  S
O188      Al2242   1.901   1_554  S
O189        C196   1.262       .  A
O189      Al2229   1.891       .  S
O190       Al194   1.783       .  S
O190      Al2229   1.777       .  S
O191        C192   1.258       .  A
O191      Al2229   1.900       .  S
C192       C1703   1.477       .  S
C193       C1577   1.468       .  S
Al194      O2236   1.906       .  S
O195      Al2233   1.926   1_554  S
C196       C1532   1.484       .  S
C197        O198   1.266       .  A
C197       C1546   1.478       .  S
O199        C214   1.262       .  A
O199       Al207   1.894       .  S
C200        O210   1.257       .  A
C200        O201   1.262       .  A
C200       C1504   1.454       .  S
O201      Al2251   1.908       .  S
O202        C204   1.262       .  A
O202      Al2251   1.894       .  S
Al203       O211   1.895   1_556  S
Al203       O213   1.911   1_556  S
Al203      O2249   1.915       .  S
Al203      O2250   1.886       .  S
Al203       O212   1.769   1_556  S
C204       O2265   1.263       .  A
C204       C1479   1.471       .  S
O205        C215   1.261       .  A
O205       Al207   1.911       .  S
O206        C219   1.258       .  A
O206       Al216   1.860       .  S
Al207       O220   1.934       .  S
Al207       O217   1.920       .  S
Al207       O212   1.783       .  S
O208        C215   1.263       .  A
O208       Al216   1.914       .  S
O209        C218   1.265       .  A
O209       Al216   1.933       .  S
O210      Al2264   1.888       .  S
O211        C218   1.259       .  A
O212       Al216   1.778       .  S
O213        C214   1.260       .  A
C214       C1493   1.485       .  S
C215       C1574   1.479       .  S
Al216      O2258   1.887   1_554  S
O217       C2252   1.262   1_554  A
C218       C1462   1.494       .  S
C219        O220   1.267       .  A
C219       C1518   1.472       .  S
O221        C236   1.258       .  A
O221       Al229   1.890       .  S
C222        O232   1.260       .  A
C222        O223   1.263       .  A
C222       C1563   1.486       .  S
O223       Al225   1.912       .  S
O224        C226   1.258       .  A
O224       Al225   1.887       .  S
Al225       O233   1.890       .  S
Al225       O235   1.924       .  S
Al225       O234   1.781       .  S
C226        O239   1.263       .  A
C226       C1605   1.471       .  S
O227        C237   1.263       .  A
O227       Al229   1.907       .  S
O228        C241   1.262       .  A
O228       Al238   1.908       .  S
Al229       O242   1.900       .  S
Al229       O239   1.929       .  S
Al229       O234   1.780       .  S
O230        C237   1.266       .  A
O230       Al238   1.921       .  S
O231        C240   1.265       .  A
O231       Al238   1.934       .  S
O232       Al238   1.893       .  S
O233        C240   1.259       .  A
O234       Al238   1.786       .  S
O235        C236   1.262       .  A
C236       C1549   1.467       .  S
C237       C1434   1.494       .  S
C240       C1448   1.471       .  S
C241        O242   1.262       .  A
C241       C1420   1.466       .  S
O243        C258   1.261       .  A
O243       Al251   1.866       .  S
C244        O254   1.257       .  A
C244        O245   1.266       .  A
C244       C1507   1.477       .  S
O245       Al247   1.920       .  S
O246        C248   1.257       .  A
O246       Al247   1.893       .  S
Al247       O255   1.884       .  S
Al247       O257   1.924       .  S
Al247       O256   1.780       .  S
C248        O261   1.259       .  A
C248       C1406   1.467       .  S
O249        C259   1.264       .  A
O249       Al251   1.899       .  S
O250        C263   1.260       .  A
O250       Al260   1.906       .  S
Al251       O264   1.906       .  S
Al251       O261   1.918       .  S
Al251       O256   1.776       .  S
O252        C259   1.269       .  A
O252       Al260   1.940       .  S
O253        C262   1.264       .  A
O253       Al260   1.935       .  S
O254       Al260   1.863       .  S
O255        C262   1.256       .  A
O256       Al260   1.783       .  S
O257        C258   1.264       .  A
C258       C1521   1.479       .  S
C259       C1395   1.495       .  S
C262       C1451   1.480       .  S
C263        O264   1.262       .  A
C263       C1378   1.463       .  S
O265        C280   1.265       .  A
O265       Al273   1.916       .  S
C266        O276   1.264       .  A
C266        O267   1.268       .  A
C266       C1322   1.471       .  S
O267       Al269   1.922       .  S
O268        C270   1.259       .  A
O268       Al269   1.884       .  S
Al269       O277   1.905       .  S
Al269       O279   1.908       .  S
Al269       O278   1.765       .  S
C270        O283   1.265       .  A
C270       C1364   1.471       .  S
O271        C281   1.265       .  A
O271       Al273   1.935       .  S
O272        C285   1.260       .  A
O272       Al282   1.866       .  S
Al273       O286   1.947       .  S
Al273       O283   1.924       .  S
Al273       O278   1.782       .  S
O274        C281   1.259       .  A
O274       Al282   1.892       .  S
O275        C284   1.261       .  A
O275       Al282   1.911   1_655  S
O276       Al282   1.907       .  S
O277        C284   1.260   1_455  A
O278       Al282   1.771       .  S
O279        C280   1.263       .  A
C280       C1350   1.483       .  S
C281       C1336   1.491       .  S
C284       C1885   1.480       .  S
C285        O286   1.270       .  A
C285       C3356   1.466       .  S
O287        C302   1.268       .  A
O287       Al295   1.915       .  S
C288        O298   1.260       .  A
C288        O289   1.263       .  A
C288       C1297   1.456   1_455  S
O289       Al291   1.907       .  S
O290        C292   1.259       .  A
O290       Al291   1.884       .  S
Al291       O299   1.897       .  S
Al291       O301   1.899       .  S
Al291       O300   1.767       .  S
C292        O305   1.262       .  A
C292       C1476   1.474       .  S
O293        C303   1.264       .  A
O293       Al295   1.926       .  S
O294        C307   1.260       .  A
O294       Al304   1.875       .  S
Al295       O308   1.941       .  S
Al295       O305   1.919       .  S
Al295       O300   1.785       .  S
O296        C303   1.261       .  A
O296       Al304   1.909       .  S
O297        C306   1.263       .  A
O297       Al304   1.918   1_655  S
O298       Al304   1.896       .  S
O299        C306   1.259   1_455  A
O300       Al304   1.772       .  S
O301        C302   1.261       .  A
C302       C1409   1.489       .  S
C303       C1339   1.490       .  S
C306       C1269   1.482       .  S
C307        O308   1.267       .  A
C307       C1280   1.468       .  S
O309        C324   1.258   1_655  A
O309       Al317   1.866       .  S
C310        O320   1.260       .  A
C310        O311   1.269       .  A
C310       C1325   1.486       .  S
O311       Al313   1.935   1_655  S
O312        C314   1.255       .  A
O312       Al313   1.887       .  S
Al313       O321   1.873   1_455  S
Al313       O323   1.941       .  S
Al313       O322   1.784   1_455  S
C314        O327   1.256       .  A
C314       C1252   1.464       .  S
O315        C325   1.261       .  A
O315       Al317   1.894       .  S
O316        C329   1.262       .  A
O316       Al326   1.915       .  S
Al317       O330   1.901       .  S
Al317       O327   1.908   1_655  S
Al317       O322   1.777       .  S
O318        C325   1.264       .  A
O318       Al326   1.926       .  S
O319        C328   1.259       .  A
O319       Al326   1.922       .  S
O320       Al326   1.879       .  S
O321        C328   1.255       .  A
O322       Al326   1.792       .  S
O323        C324   1.268       .  A
C324       C1311   1.486       .  S
C325       C2039   1.487       .  S
C328       C1238   1.479       .  S
C329        O330   1.262       .  A
C329       C1871   1.465       .  S
O331        C346   1.266   1_655  A
O331       Al339   1.916       .  S
C332        O342   1.270       .  A
C332        O333   1.263       .  A
C332       C1294   1.471       .  S
O333       Al335   1.881   1_655  S
O334        C336   1.260       .  A
O334       Al335   1.916       .  S
Al335       O343   1.889   1_455  S
Al335       O345   1.899       .  S
Al335       O344   1.788   1_455  S
C336        O349   1.257       .  A
C336       C1490   1.472       .  S
O337        C347   1.261       .  A
O337       Al339   1.905       .  S
O338        C351   1.263       .  A
O338       Al348   1.925       .  S
Al339       O352   1.874       .  S
Al339       O349   1.890   1_655  S
Al339       O344   1.773       .  S
O340        C347   1.260       .  A
O340       Al348   1.905       .  S
O341        C350   1.259       .  A
O341       Al348   1.915       .  S
O342       Al348   1.934       .  S
O343        C350   1.256       .  A
O344       Al348   1.788       .  S
O345        C346   1.262       .  A
C346       C1283   1.483       .  S
C347       C1210   1.483       .  S
C350       C1241   1.472       .  S
C351        O352   1.258       .  A
C351       C1224   1.472       .  S
O353        C368   1.261       .  A
O353       Al361   1.913       .  S
C354        O364   1.261       .  A
C354        O355   1.264       .  A
C354       C1185   1.474       .  S
O355       Al357   1.894       .  S
O356        C358   1.260       .  A
O356       Al357   1.875       .  S
Al357       O365   1.908       .  S
Al357       O367   1.898       .  S
Al357       O366   1.767       .  S
C358        O371   1.266       .  A
C358       C1927   1.468       .  S
O359        C369   1.262       .  A
O359       Al361   1.922       .  S
O360        C373   1.258       .  A
O360       Al370   1.855       .  S
Al361       O374   1.928       .  S
Al361       O371   1.930       .  S
Al361       O366   1.787       .  S
O362        C369   1.259       .  A
O362       Al370   1.890       .  S
O363        C372   1.264       .  A
O363       Al370   1.924       .  S
O364       Al370   1.899       .  S
O365        C372   1.263       .  A
O366       Al370   1.776       .  S
O367        C368   1.259       .  A
C368       C1801   1.477       .  S
C369       C1196   1.486       .  S
C372       C1154   1.487       .  S
C373        O374   1.267       .  A
C373       C1168   1.468       .  S
O375        C390   1.262       .  A
O375       Al383   1.912       .  S
C376        O386   1.260       .  A
C376        O377   1.265       .  A
C376       C1129   1.464       .  S
O377       Al379   1.921       .  S
O378        C380   1.261       .  A
O378       Al379   1.880       .  S
Al379       O387   1.907       .  S
Al379       O389   1.901       .  S
Al379       O388   1.767       .  S
C380        O393   1.265       .  A
C380       C1112   1.473       .  S
O381        C391   1.262       .  A
O381       Al383   1.917       .  S
O382        C395   1.258       .  A
O382       Al392   1.856       .  S
Al383       O396   1.933       .  S
Al383       O393   1.926       .  S
Al383       O388   1.788       .  S
O384        C391   1.260       .  A
O384       Al392   1.899       .  S
O385        C394   1.265       .  A
O385       Al392   1.933       .  S
O386       Al392   1.899       .  S
O387        C394   1.261       .  A
O388       Al392   1.773       .  S
O389        C390   1.261       .  A
C390       C1098   1.481       .  S
C391       C1199   1.476       .  S
C394       C1437   1.489       .  S
C395        O396   1.267       .  A
C395       C1143   1.462       .  S
O397        C412   1.258       .  A
O397       Al405   1.873       .  S
C398        O408   1.259       .  A
C398        O399   1.265       .  A
C398       C1182   1.460       .  S
O399       Al401   1.928       .  S
O400        C402   1.259       .  A
O400       Al401   1.892       .  S
Al401       O409   1.887       .  S
Al401       O411   1.913       .  S
Al401       O410   1.782       .  S
C402        O415   1.259       .  A
C402       C1938   1.477       .  S
O403        C413   1.261       .  A
O403       Al405   1.884       .  S
O404        C417   1.264       .  A
O404       Al414   1.913       .  S
Al405       O418   1.904       .  S
Al405       O415   1.914       .  S
Al405       O410   1.771       .  S
O406        C413   1.264       .  A
O406       Al414   1.929       .  S
O407        C416   1.261       .  A
O407       Al414   1.924       .  S
O408       Al414   1.869       .  S
O409        C416   1.256       .  A
O410       Al414   1.788       .  S
O411        C412   1.262       .  A
C412       C1171   1.458       .  S
C413       C1056   1.484       .  S
C416       C1084   1.469       .  S
C417        O418   1.263       .  A
C417       C1073   1.465       .  S
O419        C434   1.257       .  A
O419       Al427   1.866       .  S
C420        O430   1.260       .  A
C420        O421   1.269       .  A
C420       C3174   1.483       .  S
O421       Al423   1.928       .  S
O422        C424   1.257       .  A
O422       Al423   1.890       .  S
Al423       O431   1.889       .  S
Al423       O433   1.921       .  S
Al423       O432   1.782       .  S
C424        O437   1.260       .  A
C424       C1045   1.469       .  S
O425        C435   1.258       .  A
O425       Al427   1.888       .  S
O426        C439   1.263       .  A
O426       Al436   1.909       .  S
Al427       O440   1.906       .  S
Al427       O437   1.910       .  S
Al427       O432   1.772       .  S
O428        C435   1.264       .  A
O428       Al436   1.924       .  S
O429        C438   1.261       .  A
O429       Al436   1.924       .  S
O430       Al436   1.873       .  S
O431        C438   1.256       .  A
O432       Al436   1.788       .  S
O433        C434   1.263       .  A
C434       C1140   1.478       .  S
C435       C1535   1.485       .  S
C438       C1087   1.469       .  S
C439        O440   1.264       .  A
C439       C1423   1.462       .  S
O441        C456   1.264       .  A
O441       Al449   1.906       .  S
C442        O452   1.258       .  A
C442        O443   1.261       .  A
C442        C989   1.460       .  S
O443      Al2493   1.906       .  S
O444        C446   1.263       .  A
O444      Al2493   1.893       .  S
Al445       O453   1.915       .  S
Al445       O455   1.899       .  S
Al445      O2491   1.911   1_554  S
Al445      O2492   1.891   1_554  S
Al445       O454   1.769       .  S
C446       O2507   1.264       .  A
C446       C1014   1.473       .  S
O447        C457   1.262       .  A
O447       Al449   1.930       .  S
O448        C461   1.259       .  A
O448       Al458   1.868       .  S
Al449       O462   1.942       .  S
Al449       O459   1.918       .  S
Al449       O454   1.781       .  S
O450        C457   1.256       .  A
O450       Al458   1.884       .  S
O451        C460   1.260       .  A
O451       Al458   1.913       .  S
O452      Al2506   1.900       .  S
O453        C460   1.261       .  A
O454       Al458   1.775       .  S
O455        C456   1.258       .  A
C456       C1028   1.486       .  S
C457       C1000   1.487       .  S
Al458      O2500   1.893   1_554  S
O459       C2494   1.263   1_554  A
C460       C1213   1.489       .  S
C461        O462   1.272       .  A
C461        C972   1.481       .  S
O463        C478   1.262       .  A
O463       Al471   1.900       .  S
C464        O474   1.261       .  A
C464        O465   1.263       .  A
C464        C944   1.467       .  S
O465       Al467   1.916       .  S
O466        C468   1.258       .  A
O466       Al467   1.889       .  S
Al467      O2523   1.894   1_554  S
Al467      O2525   1.908   1_554  S
Al467      O2524   1.775   1_554  S
C468       O2529   1.260       .  A
C468       C1115   1.464       .  S
O469        C479   1.257       .  A
O469       Al471   1.900       .  S
O470        C483   1.258       .  A
O470       Al480   1.874       .  S
Al471       O484   1.933       .  S
Al471       O481   1.910       .  S
Al471       O476   1.790       .  S
O472        C479   1.264       .  A
O472       Al480   1.925       .  S
O473        C482   1.265       .  A
O473       Al480   1.930       .  S
O474      Al2528   1.902   1_554  S
O475        C482   1.262       .  A
O475      Al2515   1.897       .  S
O476       Al480   1.780       .  S
O476      Al2515   1.773       .  S
O477        C478   1.262       .  A
O477      Al2515   1.913       .  S
C478       C1042   1.481       .  S
C479       C1003   1.474       .  S
Al480      O2522   1.902       .  S
O481       C2516   1.262       .  A
C482       C1675   1.493       .  S
C483        O484   1.265       .  A
C483        C958   1.469       .  S
O485        C500   1.262       .  A
O485       Al493   1.883       .  S
C486        O496   1.258       .  A
C486        O487   1.267       .  A
C486        C986   1.484       .  S
O487       Al489   1.928       .  S
O488        C490   1.256       .  A
O488       Al489   1.892       .  S
Al489       O497   1.882       .  S
Al489       O499   1.914       .  S
Al489       O498   1.786       .  S
C490        O503   1.257       .  A
C490        C930   1.469       .  S
O491        C501   1.261       .  A
O491       Al493   1.893       .  S
O492        C505   1.262       .  A
O492       Al502   1.910       .  S
Al493       O506   1.901       .  S
Al493       O503   1.902       .  S
Al493       O498   1.778       .  S
O494        C501   1.263       .  A
O494       Al502   1.918       .  S
O495        C504   1.259       .  A
O495       Al502   1.916       .  S
O496       Al502   1.865       .  S
O497        C504   1.254       .  A
O498       Al502   1.789       .  S
O499        C500   1.264       .  A
C500        C975   1.482       .  S
C501       C1266   1.486       .  S
C504        C916   1.473       .  S
C505        O506   1.261       .  A
C505       C1227   1.463       .  S
O507        C522   1.260       .  A
O507       Al515   1.869       .  S
C508        O518   1.259       .  A
C508        O509   1.266       .  A
C508        C947   1.485       .  S
O509       Al511   1.923       .  S
O510        C512   1.256       .  A
O510       Al511   1.885       .  S
Al511       O519   1.879       .  S
Al511       O521   1.929       .  S
Al511       O520   1.781       .  S
C512        O525   1.259       .  A
C512       C1101   1.472       .  S
O513        C523   1.262       .  A
O513       Al515   1.903       .  S
O514        C527   1.263       .  A
O514       Al524   1.912       .  S
Al515       O528   1.907       .  S
Al515       O525   1.922       .  S
Al515       O520   1.779       .  S
O516        C523   1.266       .  A
O516       Al524   1.916       .  S
O517        C526   1.261       .  A
O517       Al524   1.926       .  S
O518       Al524   1.880       .  S
O519        C526   1.254       .  A
O520       Al524   1.784       .  S
O521        C522   1.265       .  A
C522        C961   1.480       .  S
C523       C1591   1.488       .  S
C526        C919   1.465       .  S
C527        O528   1.262       .  A
C527       C1689   1.466       .  S
O529        C544   1.264       .  A
O529       Al537   1.915       .  S
C530        O540   1.256       .  A
C530        O531   1.262       .  A
C530        C888   1.445       .  S
O531       Al533   1.909       .  S
O532        C534   1.263       .  A
O532       Al533   1.887       .  S
Al533       O541   1.914       .  S
Al533       O543   1.888       .  S
Al533       O542   1.771       .  S
C534        O547   1.263       .  A
C534       C1644   1.466       .  S
O535        C545   1.261       .  A
O535       Al537   1.930       .  S
O536        C549   1.254       .  A
O536       Al546   1.836       .  S
Al537       O550   1.939       .  S
Al537       O547   1.916       .  S
Al537       O542   1.787       .  S
O538        C545   1.254       .  A
O538       Al546   1.891       .  S
O539        C548   1.261       .  A
O539       Al546   1.915       .  S
O540       Al546   1.867       .  S
O541        C548   1.264       .  A
O542       Al546   1.774       .  S
O543        C544   1.255       .  A
C544       C1745   1.483       .  S
C545        C902   1.485       .  S
C548       C1059   1.489       .  S
C549        O550   1.271       .  A
C549        C874   1.473       .  S
O551        C566   1.265       .  A
O551       Al559   1.916       .  S
C552        O562   1.259       .  A
C552        O553   1.260       .  A
C552        C846   1.464       .  S
O553       Al555   1.906       .  S
O554        C556   1.262       .  A
O554       Al555   1.893       .  S
Al555       O563   1.900       .  S
Al555       O565   1.894       .  S
Al555       O564   1.772       .  S
C556        O569   1.265       .  A
C556       C1367   1.467       .  S
O557        C567   1.262       .  A
O557       Al559   1.925       .  S
O558        C571   1.258       .  A
O558       Al568   1.869       .  S
Al559       O572   1.935       .  S
Al559       O569   1.919       .  S
Al559       O564   1.787       .  S
O560        C567   1.260       .  A
O560       Al568   1.884       .  S
O561        C570   1.263       .  A
O561       Al568   1.915       .  S
O562       Al568   1.900       .  S
O563        C570   1.262       .  A
O564       Al568   1.775       .  S
O565        C566   1.257       .  A
C566       C1255   1.489       .  S
C567        C905   1.488       .  S
C570        C835   1.478       .  S
C571        O572   1.268       .  A
C571        C860   1.479       .  S
O573        C588   1.259       .  A
O573      Al2629   1.861       .  S
C574        O584   1.257       .  A
C574        O575   1.260       .  A
C574        C891   1.468       .  S
O575       Al577   1.902       .  S
O576        C578   1.256       .  A
O576       Al577   1.891       .  S
Al577       O585   1.884       .  S
Al577      O2635   1.919   1_554  S
Al577       O586   1.779       .  S
C578        O591   1.258       .  A
C578       C1633   1.469       .  S
O579        C589   1.262       .  A
O579       Al581   1.893       .  S
O580       C2641   1.261   1_554  A
O580       Al590   1.905       .  S
Al581       O591   1.920       .  S
Al581      O2621   1.864   1_554  S
Al581      O2642   1.906   1_554  S
Al581       O586   1.776       .  S
O582        C589   1.270       .  A
O582       Al590   1.936       .  S
O583        C592   1.264       .  A
O583       Al590   1.934       .  S
O584       Al590   1.863       .  S
O585        C592   1.257       .  A
O586       Al590   1.782       .  S
O587        C588   1.260       .  A
O587      Al2625   1.903       .  S
C588        C877   1.467       .  S
C589       C1157   1.490       .  S
C592        C821   1.472       .  S
C593        O594   1.263       .  A
C593       O2628   1.261       .  A
C593       C1070   1.466       .  S
O594      Al2629   1.914       .  S
O595        C610   1.259       .  A
O595       Al603   1.879       .  S
C596        O606   1.258       .  A
C596        O597   1.264       .  A
C596        C849   1.480       .  S
O597       Al599   1.927       .  S
O598        C600   1.257       .  A
O598       Al599   1.889       .  S
Al599       O607   1.879       .  S
Al599      O2657   1.940       .  S
Al599       O608   1.776       .  S
C600        O613   1.262       .  A
C600       C1353   1.474       .  S
O601        C611   1.261       .  A
O601      Al2651   1.887       .  S
O602        C615   1.260       .  A
O602      Al2660   1.901   1_554  S
Al603       O616   1.907       .  S
Al603      O2649   1.892   1_554  S
Al603      O2661   1.931   1_554  S
Al603      O2656   1.776   1_554  S
O604        C611   1.268       .  A
O604       Al612   1.926       .  S
O605        C614   1.265       .  A
O605       Al612   1.931       .  S
O606       Al612   1.873       .  S
O607        C614   1.258       .  A
O608       Al612   1.784       .  S
O608      Al2651   1.774       .  S
O609        C610   1.266       .  A
O609      Al2647   1.933   1_554  S
C610        C863   1.465       .  S
C611        C804   1.486       .  S
Al612      O2650   1.907       .  S
O613      Al2651   1.930       .  S
C614        C818   1.472       .  S
C615        O616   1.262       .  A
C615        C790   1.460       .  S
O617        C632   1.263       .  A
O617       Al625   1.910       .  S
C618        O628   1.259   1_455  A
C618        O619   1.264   1_455  A
C618        C762   1.456       .  S
O619       Al621   1.908       .  S
O620        C622   1.260       .  A
O620       Al621   1.883       .  S
Al621       O629   1.901   1_655  S
Al621       O631   1.898       .  S
Al621       O630   1.772       .  S
C622        O635   1.264       .  A
C622       C2011   1.468       .  S
O623        C633   1.261       .  A
O623       Al625   1.923       .  S
O624        C637   1.257   1_455  A
O624       Al634   1.856       .  S
Al625       O638   1.938       .  S
Al625       O635   1.921       .  S
Al625       O630   1.785       .  S
O626        C633   1.256       .  A
O626       Al634   1.892   1_655  S
O627        C636   1.258       .  A
O627       Al634   1.914       .  S
O628       Al634   1.881   1_655  S
O629        C636   1.261       .  A
O630       Al634   1.779   1_655  S
O631        C632   1.259       .  A
C632       C1857   1.477       .  S
C633        C776   1.476       .  S
C636        C807   1.485       .  S
C637        O638   1.272       .  A
C637       C2796   1.480       .  S
O639        C654   1.260       .  A
O639       Al647   1.897       .  S
C640        O650   1.263       .  A
C640        O641   1.265   1_455  A
C640        C720   1.471       .  S
O641       Al643   1.911       .  S
O642        C644   1.260       .  A
O642       Al643   1.889       .  S
Al643       O651   1.907   1_655  S
Al643       O653   1.904       .  S
Al643       O652   1.770       .  S
C644        O657   1.263       .  A
C644       C1017   1.472       .  S
O645        C655   1.260       .  A
O645       Al647   1.911       .  S
O646        C659   1.260   1_455  A
O646       Al656   1.879       .  S
Al647       O660   1.934       .  S
Al647       O657   1.920       .  S
Al647       O652   1.788       .  S
O648        C655   1.262       .  A
O648       Al656   1.910   1_655  S
O649        C658   1.264       .  A
O649       Al656   1.924       .  S
O650       Al656   1.904       .  S
O651        C658   1.260       .  A
O652       Al656   1.777   1_655  S
O653        C654   1.262       .  A
C654        C933   1.479       .  S
C655        C779   1.486       .  S
C658       C1392   1.494       .  S
C659        O660   1.267       .  A
C659        C734   1.464       .  S
O661        C676   1.262       .  A
O661       Al669   1.868       .  S
C662        O672   1.257       .  A
C662        O663   1.261       .  A
C662        C765   1.467       .  S
O663       Al665   1.909       .  S
O664        C666   1.257       .  A
O664       Al665   1.888   1_655  S
Al665       O673   1.862       .  S
Al665       O675   1.922   1_455  S
Al665       O674   1.778       .  S
C666        O679   1.261   1_655  A
C666       C2022   1.469       .  S
O667        C677   1.262       .  A
O667       Al669   1.889       .  S
O668        C681   1.258       .  A
O668       Al678   1.899       .  S
Al669       O682   1.912       .  S
Al669       O679   1.925       .  S
Al669       O674   1.771       .  S
O670        C677   1.269       .  A
O670       Al678   1.931       .  S
O671        C680   1.264       .  A
O671       Al678   1.929       .  S
O672       Al678   1.861       .  S
O673        C680   1.257       .  A
O674       Al678   1.782       .  S
O675        C676   1.264   1_655  A
C676        C751   1.478       .  S
C677        C832   1.484       .  S
C680        C706   1.481       .  S
C681        O682   1.263       .  A
C681        C793   1.462       .  S
O683        C698   1.260       .  A
O683       Al691   1.883       .  S
C684        O694   1.262       .  A
C684        O685   1.265       .  A
C684        C723   1.478       .  S
O685       Al687   1.917       .  S
O686        C688   1.253       .  A
O686       Al687   1.880   1_655  S
Al687       O695   1.861       .  S
Al687       O697   1.908       .  S
Al687       O696   1.791       .  S
C688        O701   1.256   1_655  A
C688       C1031   1.463       .  S
O689        C699   1.261       .  A
O689       Al691   1.900       .  S
O690        C703   1.263       .  A
O690       Al700   1.910       .  S
Al691       O704   1.898       .  S
Al691       O701   1.901       .  S
Al691       O696   1.783       .  S
O692        C699   1.261       .  A
O692       Al700   1.918       .  S
O693        C702   1.257       .  A
O693       Al700   1.916       .  S
O694       Al700   1.885       .  S
O695        C702   1.250       .  A
O696       Al700   1.798       .  S
O697        C698   1.261       .  A
C698        C737   1.474       .  S
C699       C1465   1.491       .  S
C702        C709   1.462       .  S
C703        O704   1.262       .  A
C703       C1381   1.464       .  S
C705        C706   1.405       .  A
C705        C710   1.388       .  A
C705        H712   1.083       .  S
C706        C707   1.416       .  A
C707        C708   1.405       .  A
C707        N714   1.428       .  S
C708        C709   1.401   1_545  A
C708        H713   1.084   1_545  S
C709        C710   1.404   1_565  A
C710        N711   1.430       .  S
N711        O715   1.262   1_445  A
N711        O716   1.261       .  A
N714        O718   1.262       .  A
N714        O717   1.262       .  A
C719        C720   1.400       .  A
C719        C724   1.392       .  A
C719        H726   1.085       .  S
C720        C721   1.409       .  A
C721       C2770   1.404       .  A
C721        N728   1.429   1_455  S
C722        C723   1.408       .  A
C722       C2769   1.404   1_554  A
C722        H727   1.083       .  S
C723       C2772   1.412   1_554  A
C724       C2771   1.412       .  A
C724        N725   1.431       .  S
N725        O729   1.262       .  A
N725       O2778   1.262       .  A
N728        O732   1.262   1_655  A
N728        O731   1.262       .  A
O730       N2773   1.262   1_556  A
C733        C734   1.400       .  A
C733        C738   1.404       .  A
C733        H740   1.084       .  S
C734        C735   1.407       .  A
C735        C736   1.394       .  A
C735        N742   1.428       .  S
C736        C737   1.400   1_655  A
C736        H741   1.084   1_655  S
C737        C738   1.414   1_455  A
C738        N739   1.429       .  S
N739        O743   1.262       .  A
N739        O744   1.262   1_655  A
N742        O746   1.261   1_655  A
N742        O745   1.262       .  A
C747        C748   1.402       .  A
C747        C752   1.405       .  A
C747        H754   1.084       .  S
C748       C2685   1.469   1_554  S
C748        C749   1.409   1_655  A
C749        C750   1.385       .  A
C749       N2804   1.429   1_554  S
C750        C751   1.400       .  A
C750        H755   1.084       .  S
C751        C752   1.417   1_455  A
C752        N753   1.429       .  S
N753        O757   1.262       .  A
N753        O758   1.262       .  A
N756       C2797   1.430       .  S
N756        O760   1.262       .  A
N756        O759   1.262       .  A
C761        C762   1.401       .  A
C761        C766   1.399       .  A
C761        H768   1.084   1_455  S
C762        C763   1.407       .  A
C763        C764   1.388       .  A
C763        N770   1.433       .  S
C764        C765   1.403       .  A
C764        H769   1.083       .  S
C765        C766   1.412       .  A
C766        N767   1.431   1_455  S
N767        O771   1.262   1_655  A
N767        O772   1.262       .  A
N770        O774   1.262       .  A
N770        O773   1.262       .  A
C775        C776   1.401       .  A
C775        C780   1.394       .  A
C775        H782   1.084       .  S
C776        C777   1.408       .  A
C777        C778   1.410       .  A
C777        N784   1.429       .  S
C778        C779   1.410   1_545  A
C778        H783   1.084   1_545  S
C779        C780   1.413   1_565  A
C780        N781   1.432       .  S
N781        O785   1.262       .  A
N781        O786   1.262   1_655  A
N784        O788   1.262       .  A
N784        O787   1.262       .  A
C789        C790   1.398       .  A
C789        C794   1.396       .  A
C789        H796   1.084       .  S
C790        C791   1.409       .  A
C791        C792   1.400       .  A
C791        N798   1.428       .  S
C792        C793   1.399       .  A
C792        H797   1.084       .  S
C793        C794   1.408       .  A
C794        N795   1.429       .  S
N795        O799   1.261       .  A
N795        O800   1.262       .  A
N798       O2850   1.261   1_554  A
N798       O2849   1.262   1_554  A
O801       N2846   1.262       .  A
O802       N2846   1.262       .  A
C803        C804   1.404       .  A
C803        C808   1.399       .  A
C803        H810   1.084       .  S
C804        C805   1.414       .  A
C805        C806   1.399       .  A
C805        N812   1.429       .  S
C806        C807   1.403       .  A
C806        H811   1.082       .  S
C807        C808   1.417       .  A
C808        N809   1.431       .  S
N809        O813   1.262       .  A
N809        O814   1.262       .  A
N812       O2864   1.262       .  A
N812        O815   1.262       .  A
O816       N2860   1.262       .  A
C817        C822   1.396       .  A
C817       C2866   1.404       .  A
C817        H824   1.084       .  S
C818        C819   1.411       .  A
C818       C2865   1.402       .  A
C819        C820   1.402       .  A
C819        N826   1.428       .  S
C820       C2869   1.401       .  A
C820        H825   1.084       .  S
C821        C822   1.407       .  A
C821       C2868   1.402   1_554  A
C822        N823   1.428       .  S
N823        O827   1.262       .  A
N823        O828   1.262       .  A
N826        O830   1.261       .  A
N826        O829   1.261       .  A
C831        C832   1.408       .  A
C831        C836   1.402       .  A
C831        H838   1.084       .  S
C832        C833   1.413       .  A
C833        C834   1.398       .  A
C833        N840   1.431       .  S
C834        C835   1.404       .  A
C834        H839   1.084       .  S
C835        C836   1.412       .  A
C836        N837   1.434       .  S
N837        O841   1.263       .  A
N837        O842   1.262       .  A
N840        O844   1.262       .  A
N840        O843   1.262       .  A
C845        C846   1.400       .  A
C845        C850   1.402       .  A
C845        H852   1.084       .  S
C846        C847   1.406       .  A
C847        C848   1.393       .  A
C847        N854   1.430       .  S
C848        C849   1.406       .  A
C848        H853   1.084       .  S
C849        C850   1.415       .  A
C850        N851   1.428       .  S
N851        O855   1.261       .  A
N851        O856   1.262       .  A
N854        O858   1.262       .  A
N854        O857   1.262       .  A
C859        C860   1.406       .  A
C859        C864   1.403       .  A
C859        H866   1.084       .  S
C860        C861   1.415       .  A
C861        C862   1.395       .  A
C861        N868   1.432       .  S
C862        C863   1.397       .  A
C862        H867   1.085       .  S
C863        C864   1.407       .  A
C864        N865   1.429       .  S
N865        O869   1.262       .  A
N865        O870   1.262       .  A
N868        O872   1.262       .  A
N868        O871   1.262       .  A
C873        C874   1.405       .  A
C873        C878   1.400       .  A
C873        H880   1.084       .  S
C874        C875   1.419       .  A
C875        C876   1.385       .  A
C875        N882   1.432       .  S
C876        C877   1.397       .  A
C876        H881   1.085       .  S
C877        C878   1.411       .  A
C878        N879   1.429       .  S
N879        O883   1.262       .  A
N879        O884   1.262       .  A
N882        O886   1.262       .  A
N882        O885   1.262       .  A
C887        C888   1.394       .  A
C887        C892   1.392       .  A
C887        H894   1.084       .  S
C888        C889   1.401       .  A
C889        C890   1.389       .  A
C889        N896   1.430       .  S
C890        C891   1.408       .  A
C890        H895   1.084       .  S
C891        C892   1.415       .  A
C892        N893   1.429       .  S
N893        O897   1.262       .  A
N893        O898   1.262       .  A
N896        O900   1.262       .  A
N896        O899   1.262       .  A
C901        C902   1.408       .  A
C901        C906   1.414       .  A
C901        H908   1.083       .  S
C902        C903   1.415       .  A
C903        C904   1.389       .  A
C903        N910   1.431       .  S
C904        C905   1.401       .  A
C904        H909   1.084       .  S
C905        C906   1.414       .  A
C906        N907   1.428       .  S
N907        O911   1.262       .  A
N907        O912   1.262       .  A
N910        O914   1.261       .  A
N910        O913   1.262       .  A
C915        C916   1.403       .  A
C915        C920   1.400       .  A
C915        H922   1.084       .  S
C916        C917   1.411       .  A
C917        C918   1.399       .  A
C917        N924   1.430       .  S
C918        C919   1.400       .  A
C918        H923   1.084       .  S
C919        C920   1.406       .  A
C920        N921   1.427       .  S
N921        O925   1.262       .  A
N921        O926   1.262       .  A
N924        O928   1.262       .  A
N924        O927   1.262       .  A
C929        C930   1.401       .  A
C929        C934   1.403       .  A
C929        H936   1.084       .  S
C930        C931   1.407       .  A
C931        C932   1.398       .  A
C931        N938   1.431       .  S
C932        C933   1.405       .  A
C932        H937   1.084       .  S
C933        C934   1.414       .  A
C934        N935   1.431       .  S
N935        O939   1.262       .  A
N935        O940   1.262       .  A
N938        O942   1.262       .  A
N938        O941   1.262       .  A
C943        C944   1.398       .  A
C943        C948   1.397       .  A
C943        H950   1.085       .  S
C944        C945   1.408       .  A
C945        C946   1.403       .  A
C945        N952   1.432       .  S
C946        C947   1.408       .  A
C946        H951   1.084       .  S
C947        C948   1.417       .  A
C948        N949   1.429       .  S
N949        O953   1.262       .  A
N949        O954   1.262       .  A
N952        O956   1.262       .  A
N952        O955   1.262       .  A
C957        C958   1.403       .  A
C957        C962   1.408       .  A
C957        H964   1.084       .  S
C958        C959   1.409       .  A
C959        C960   1.389       .  A
C959        N966   1.432       .  S
C960        C961   1.401       .  A
C960        H965   1.084       .  S
C961        C962   1.416       .  A
C962        N963   1.429       .  S
N963        O967   1.261       .  A
N963        O968   1.262       .  A
N966        O970   1.262       .  A
N966        O969   1.261       .  A
C971        C972   1.404       .  A
C971        C976   1.401       .  A
C971        H978   1.084       .  S
C972        C973   1.416       .  A
C973        C974   1.395       .  A
C973        N980   1.431       .  S
C974        C975   1.402       .  A
C974        H979   1.084       .  S
C975        C976   1.414       .  A
C976        N977   1.429       .  S
N977        O981   1.262       .  A
N977        O982   1.262       .  A
N980        O984   1.262       .  A
N980        O983   1.262       .  A
C985        C986   1.408       .  A
C985        C990   1.404       .  A
C985        H992   1.084       .  S
C986        C987   1.417       .  A
C987        C988   1.391       .  A
C987        N994   1.428       .  S
C988        C989   1.394       .  A
C988        H993   1.085       .  S
C989        C990   1.407       .  A
C990        N991   1.430       .  S
N991        O995   1.262       .  A
N991        O996   1.261       .  A
N994        O998   1.262       .  A
N994        O997   1.262       .  A
C999       C1004   1.405       .  A
C999       C3048   1.406       .  A
C999       H1006   1.083       .  S
C1000      C1001   1.417       .  A
C1000      C3047   1.410       .  A
C1001      C1002   1.390       .  A
C1001      N1008   1.433       .  S
C1002      C3051   1.397       .  A
C1002      H1007   1.085       .  S
C1003      C1004   1.406       .  A
C1003      C3050   1.401       .  A
C1004      N1005   1.430       .  S
N1005      O1009   1.262       .  A
N1005      O1010   1.262       .  A
N1008      O1012   1.262       .  A
N1008      O1011   1.262       .  A
C1013      C1014   1.400       .  A
C1013      C1018   1.397       .  A
C1013      H1020   1.083       .  S
C1014      C1015   1.413       .  A
C1015      C1016   1.401       .  A
C1015      N3070   1.433       .  S
C1016      C1017   1.402       .  A
C1016      H1021   1.084       .  S
C1017      C1018   1.410       .  A
C1018      N1019   1.428       .  S
N1019      O1023   1.262       .  A
N1019      O1024   1.262       .  A
N1022      C3063   1.434   1_554  S
N1022      O1026   1.262       .  A
N1022      O1025   1.263       .  A
C1027      C1028   1.408       .  A
C1027      C1032   1.400       .  A
C1027      H1034   1.084       .  S
C1028      C1029   1.424       .  A
C1029      C1030   1.400       .  A
C1029      N1036   1.432       .  S
C1030      C1031   1.393       .  A
C1030      H1035   1.085       .  S
C1031      C1032   1.404       .  A
C1032      N1033   1.430       .  S
N1033      O1037   1.262       .  A
N1033      O1038   1.262       .  A
N1036      O1040   1.262       .  A
N1036      O1039   1.262       .  A
C1041      C1042   1.406       .  A
C1041      C1046   1.402       .  A
C1041      H1048   1.084       .  S
C1042      C1043   1.414       .  A
C1043      C1044   1.400       .  A
C1043      N1050   1.429       .  S
C1044      C1045   1.398       .  A
C1044      H1049   1.083       .  S
C1045      C1046   1.407       .  A
C1046      N1047   1.430       .  S
N1047      O1051   1.262       .  A
N1047      O1052   1.262       .  A
N1050      O1054   1.261       .  A
N1050      O3101   1.262       .  A
O1053      N3098   1.262       .  A
C1055      C1056   1.399       .  A
C1055      C1060   1.396       .  A
C1055      H1062   1.083       .  S
C1056      C1057   1.413       .  A
C1057      C1058   1.405       .  A
C1057      N1064   1.433       .  S
C1058      C1059   1.409       .  A
C1058      H1063   1.083       .  S
C1059      C1060   1.410       .  A
C1060      N1061   1.423       .  S
N1061      O1065   1.263       .  A
N1061      O1066   1.262       .  A
N1064      O1068   1.263       .  A
N1064      O1067   1.262       .  A
C1069      C1070   1.400       .  A
C1069      C1074   1.404       .  A
C1069      H1076   1.084       .  S
C1070      C1071   1.409       .  A
C1071      C1072   1.399       .  A
C1071      N3126   1.429       .  S
C1072      C1073   1.400       .  A
C1072      H1077   1.084       .  S
C1073      C1074   1.410       .  A
C1074      N1075   1.435       .  S
N1075      O1079   1.262       .  A
N1075      O1080   1.262       .  A
N1078      C3119   1.430   1_554  S
N1078      O1082   1.262       .  A
N1078      O1081   1.262       .  A
C1083      C1084   1.402       .  A
C1083      C1088   1.401       .  A
C1083      H1090   1.084       .  S
C1084      C1085   1.408       .  A
C1085      C1086   1.400   1_545  A
C1085      N1092   1.429       .  S
C1086      C1087   1.401       .  A
C1086      H1091   1.084       .  S
C1087      C1088   1.409   1_565  A
C1088      N1089   1.430       .  S
N1089      O1093   1.262   1_545  A
N1089      O1094   1.262       .  A
N1092      O1096   1.262       .  A
N1092      O1095   1.262       .  A
C1097      C1098   1.406       .  A
C1097      C1102   1.396       .  A
C1097      H1104   1.084       .  S
C1098      C1099   1.412       .  A
C1099      C1100   1.406       .  A
C1099      N1106   1.429       .  S
C1100      C1101   1.405       .  A
C1100      H1105   1.084       .  S
C1101      C1102   1.407       .  A
C1102      N1103   1.432       .  S
N1103      O1107   1.262       .  A
N1103      O1108   1.262       .  A
N1106      O1110   1.262       .  A
N1106      O1109   1.262       .  A
C1111      C1112   1.406       .  A
C1111      C1116   1.399       .  A
C1111      H1118   1.020       .  S
C1112      C1113   1.412       .  A
C1113      C1114   1.405       .  A
C1113      N1120   1.434       .  S
C1114      C1115   1.403       .  A
C1114      H1119   1.053       .  S
C1115      C1116   1.406       .  A
C1116      N1117   1.431       .  S
N1117      O1121   1.261   1_554  A
N1117      O1122   1.262   1_554  A
N1120      O1124   1.262       .  A
N1120      O1123   1.262       .  A
C1125      C1126   1.407       .  A
C1125      C1130   1.400       .  A
C1125      H3180   1.083   1_554  S
C1126      C2468   1.482   1_554  S
C1126      C1127   1.417       .  A
C1127      C1128   1.395       .  A
C1127      N1134   1.430       .  S
C1128      C1129   1.396       .  A
C1128      H1133   1.081       .  S
C1129      C1130   1.406       .  A
C1130      N1131   1.428       .  S
N1131      O1135   1.261       .  A
N1131      O1136   1.261       .  A
H1132      C3173   1.083       .  S
N1134      O1138   1.262       .  A
N1134      O1137   1.262       .  A
C1139      C1140   1.410       .  A
C1139      C1144   1.403       .  A
C1139      H1146   1.083       .  S
C1140      C1141   1.415       .  A
C1141      C1142   1.388       .  A
C1141      N1148   1.433       .  S
C1142      C1143   1.398       .  A
C1142      H1147   1.085       .  S
C1143      C1144   1.405       .  A
C1144      N1145   1.429       .  S
N1145      O1149   1.262       .  A
N1145      O1150   1.262       .  A
N1148      O1152   1.262       .  A
N1148      O1151   1.262       .  A
C1153      C1154   1.404       .  A
C1153      C1158   1.403       .  A
C1153      H1160   1.084       .  S
C1154      C1155   1.414       .  A
C1155      C1156   1.399       .  A
C1155      N1162   1.430       .  S
C1156      C1157   1.405       .  A
C1156      H1161   1.084       .  S
C1157      C1158   1.417       .  A
C1158      N1159   1.429       .  S
N1159      O1163   1.262       .  A
N1159      O1164   1.262       .  A
N1162      O1166   1.262       .  A
N1162      O1165   1.262       .  A
C1167      C1172   1.400       .  A
C1167      C3216   1.405       .  A
C1167      H1174   1.084       .  S
C1168      C1169   1.408       .  A
C1168      C3215   1.402   1_554  A
C1169      C3218   1.383   1_554  A
C1169      N1176   1.428       .  S
C1170      C1171   1.396       .  A
C1170      C3217   1.391       .  A
C1170      H1175   1.084       .  S
C1171      C1172   1.407       .  A
C1172      N1173   1.430       .  S
N1173      O1177   1.262       .  A
N1173      O1178   1.262       .  A
N1176      O1180   1.262       .  A
N1176      O1179   1.261       .  A
C1181      C1182   1.402       .  A
C1181      C1186   1.406       .  A
C1181      H1188   1.083       .  S
C1182      C1183   1.405       .  A
C1183      C1184   1.383       .  A
C1183      N1190   1.430       .  S
C1184      C1185   1.402       .  A
C1184      H1189   1.084       .  S
C1185      C1186   1.414       .  A
C1186      N1187   1.429       .  S
N1187      O1191   1.262       .  A
N1187      O1192   1.262       .  A
N1190      O1194   1.261       .  A
N1190      O1193   1.260       .  A
C1195      C1196   1.410       .  A
C1195      C1200   1.411       .  A
C1195      H1202   1.083       .  S
C1196      C1197   1.415       .  A
C1197      C1198   1.391       .  A
C1197      N1204   1.433       .  S
C1198      C1199   1.398   1_545  A
C1198      H1203   1.084   1_545  S
C1199      C1200   1.409   1_565  A
C1200      N1201   1.428       .  S
N1201      O1205   1.262   1_545  A
N1201      O1206   1.262       .  A
N1204      O1208   1.262       .  A
N1204      O1207   1.262       .  A
C1209      C1210   1.405       .  A
C1209      C1214   1.402       .  A
C1209      H1216   1.084       .  S
C1210      C1211   1.411       .  A
C1211      C1212   1.400       .  A
C1211      N1218   1.429       .  S
C1212      C1213   1.407       .  A
C1212      H1217   1.084       .  S
C1213      C1214   1.411       .  A
C1214      N1215   1.426       .  S
N1215      O1219   1.262       .  A
N1215      O1220   1.262       .  A
N1218      O3270   1.261       .  A
N1218      O1221   1.259       .  A
O1222      N3266   1.260       .  A
C1223      C1224   1.400       .  A
C1223      C1228   1.396       .  A
C1223      H1230   1.085       .  S
C1224      C1225   1.410       .  A
C1225      C1226   1.402       .  A
C1225      N1232   1.425       .  S
C1226      C1227   1.398       .  A
C1226      H1231   1.084       .  S
C1227      C1228   1.410       .  A
C1228      N1229   1.429       .  S
N1229      O1233   1.262       .  A
N1229      O1234   1.261       .  A
N1232      O1236   1.262       .  A
N1232      O1235   1.261       .  A
C1237      C1238   1.408       .  A
C1237      C1242   1.407       .  A
C1237      H1244   1.084       .  S
C1238      C1239   1.414       .  A
C1239      C1240   1.396       .  A
C1239      N1246   1.437       .  S
C1240      C1241   1.400       .  A
C1240      H1245   1.084       .  S
C1241      C1242   1.409       .  A
C1242      N1243   1.430       .  S
N1243      O1247   1.262       .  A
N1243      O1248   1.262       .  A
N1246      O1250   1.262   1_655  A
N1246      O1249   1.263       .  A
C1251      C1252   1.394       .  A
C1251      C1256   1.398       .  A
C1251      H1258   1.085       .  S
C1252      C1253   1.405       .  A
C1253      C1254   1.402       .  A
C1253      N1260   1.429       .  S
C1254      C1255   1.407       .  A
C1254      H1259   1.083       .  S
C1255      C1256   1.423       .  A
C1256      N1257   1.431       .  S
N1257      O1261   1.262       .  A
N1257      O1262   1.262       .  A
N1260      O1264   1.262       .  A
N1260      O1263   1.262       .  A
C1265      C1266   1.407       .  A
C1265      C1270   1.399       .  A
C1265      H1272   1.083       .  S
C1266      C1267   1.417       .  A
C1267      C1268   1.399       .  A
C1267      N1274   1.432       .  S
C1268      C1269   1.404       .  A
C1268      H1273   1.084       .  S
C1269      C1270   1.410       .  A
C1270      N1271   1.429       .  S
N1271      O1275   1.261   1_655  A
N1271      O1276   1.261   1_655  A
N1274      O1278   1.262       .  A
N1274      O1277   1.262       .  A
C1279      C1280   1.401       .  A
C1279      C1284   1.406       .  A
C1279      H1286   1.084       .  S
C1280      C1281   1.405       .  A
C1281      C1282   1.391       .  A
C1281      N1288   1.429       .  S
C1282      C1283   1.405       .  A
C1282      H1287   1.084       .  S
C1283      C1284   1.417       .  A
C1284      N1285   1.429       .  S
N1285      O1289   1.262       .  A
N1285      O1290   1.262       .  A
N1288      O1292   1.262   1_455  A
N1288      O1291   1.262       .  A
C1293      C1298   1.399       .  A
C1293      C3342   1.404   1_455  A
C1293      H3348   1.084       .  S
C1294      C3341   1.405   1_655  A
C1294      C3343   1.408   1_554  A
C1295      C1296   1.395       .  A
C1295      C3342   1.409       .  A
C1295      N3350   1.426       .  S
C1296      C1297   1.397       .  A
C1296      H1301   1.085       .  S
C1297      C1298   1.404   1_655  A
C1298      N1299   1.429       .  S
N1299      O1303   1.261       .  A
N1299      O1304   1.261       .  A
H1300      C3341   1.084       .  S
N1302      C3343   1.426   1_554  S
N1302      O3354   1.261       .  A
N1302      O1305   1.262       .  A
O1306      N3350   1.262       .  A
C1307      C1308   1.398       .  A
C1307      C1312   1.392       .  A
C1307      H1314   1.084   1_554  S
C1308      C2333   1.472   1_554  S
C1308      C1309   1.408       .  A
C1309      C1310   1.408       .  A
C1309      N1316   1.430       .  S
C1310      C1311   1.409       .  A
C1310      H1315   1.083       .  S
C1311      C1312   1.417       .  A
C1312      N1313   1.433   1_455  S
N1313      O1317   1.262       .  A
N1313      O1318   1.262   1_655  A
N1316      O1320   1.262       .  A
N1316      O3367   1.262       .  A
O1319      N3364   1.262       .  A
C1321      C1322   1.397   1_655  A
C1321      C1326   1.394       .  A
C1321      H1328   1.085       .  S
C1322      C1323   1.408       .  A
C1323      C1324   1.407       .  A
C1323      N1330   1.429       .  S
C1324      C1325   1.408   1_455  A
C1324      H1329   1.083       .  S
C1325      C1326   1.416       .  A
C1326      N1327   1.429       .  S
N1327      O1331   1.262       .  A
N1327      O1332   1.262       .  A
N1330      O1334   1.262       .  A
N1330      O1333   1.261       .  A
C1335      C1336   1.404       .  A
C1335      C1340   1.388       .  A
C1335      H1342   1.084       .  S
C1336      C1337   1.413       .  A
C1337      C1338   1.414       .  A
C1337      N1344   1.429       .  S
C1338      C1339   1.411       .  A
C1338      H1343   1.083       .  S
C1339      C1340   1.415       .  A
C1340      N1341   1.432       .  S
N1341      O1345   1.262   1_455  A
N1341      O1346   1.262   1_455  A
N1344      O1348   1.262       .  A
N1344      O1347   1.262       .  A
C1349      C1350   1.408       .  A
C1349      C1354   1.398       .  A
C1349      H1356   1.084       .  S
C1350      C1351   1.412       .  A
C1351      C1352   1.404       .  A
C1351      N1358   1.429       .  S
C1352      C1353   1.403       .  A
C1352      H3405   1.082       .  S
C1353      C1354   1.406       .  A
C1354      N1355   1.430       .  S
N1355      O1359   1.262       .  A
N1355      O1360   1.261       .  A
H1357      C3400   1.082   1_554  S
N1358      O3410   1.262       .  A
N1358      O3409   1.262       .  A
O1361      N3406   1.262   1_554  A
O1362      N3406   1.262   1_554  A
C1363      C1364   1.406       .  A
C1363      C1368   1.400       .  A
C1363      H1370   1.084       .  S
C1364      C1365   1.409       .  A
C1365      C1366   1.397       .  A
C1365      N1372   1.429       .  S
C1366      C1367   1.402       .  A
C1366      H1371   1.085       .  S
C1367      C1368   1.406       .  A
C1368      N1369   1.429       .  S
N1369      O1373   1.261       .  A
N1369      O1374   1.261       .  A
N1372      O1376   1.262       .  A
N1372      O1375   1.261       .  A
C1377      C1378   1.399       .  A
C1377      C1382   1.395       .  A
C1377      H1384   1.084       .  S
C1378      C1379   1.405       .  A
C1379      C1380   1.403       .  A
C1379      N1386   1.429       .  S
C1380      C1381   1.404       .  A
C1380      H1385   1.082       .  S
C1381      C1382   1.407       .  A
C1382      N1383   1.430       .  S
N1383      O1387   1.262       .  A
N1383      O1388   1.262       .  A
N1386      O1390   1.261       .  A
N1386      O1389   1.262       .  A
C1391      C1392   1.406       .  A
C1391      C1396   1.400       .  A
C1391      H1398   1.084       .  S
C1392      C1393   1.416       .  A
C1393      C1394   1.407       .  A
C1393      N1400   1.432       .  S
C1394      C1395   1.409       .  A
C1394      H1399   1.083       .  S
C1395      C1396   1.415       .  A
C1396      N1397   1.430       .  S
N1397      O1401   1.262       .  A
N1397      O1402   1.262       .  A
N1400      O1404   1.262       .  A
N1400      O1403   1.262       .  A
C1405      C1406   1.395       .  A
C1405      C1410   1.398       .  A
C1405      H1412   1.084       .  S
C1406      C1407   1.408       .  A
C1407      C1408   1.403       .  A
C1407      N1414   1.430       .  S
C1408      C1409   1.406       .  A
C1408      H1413   1.084       .  S
C1409      C1410   1.422       .  A
C1410      N1411   1.430       .  S
N1411      O1415   1.262       .  A
N1411      O1416   1.261       .  A
N1414      O1418   1.262       .  A
N1414      O1417   1.262       .  A
C1419      C1420   1.405       .  A
C1419      C1424   1.404       .  A
C1419      H1426   1.084       .  S
C1420      C1421   1.407       .  A
C1421      C1422   1.395       .  A
C1421      N1428   1.429       .  S
C1422      C1423   1.399       .  A
C1422      H1427   1.085       .  S
C1423      C1424   1.407       .  A
C1424      N1425   1.429       .  S
N1425      O1429   1.262       .  A
N1425      O1430   1.262       .  A
N1428      O1432   1.262       .  A
N1428      O1431   1.262       .  A
C1433      C1434   1.407       .  A
C1433      C1438   1.400       .  A
C1433      H1440   1.084       .  S
C1434      C1435   1.416       .  A
C1435      C1436   1.406       .  A
C1435      N1442   1.429       .  S
C1436      C1437   1.406       .  A
C1436      H1441   1.084       .  S
C1437      C1438   1.411       .  A
C1438      N1439   1.429       .  S
N1439      O1443   1.261       .  A
N1439      O1444   1.262       .  A
N1442      O1446   1.262       .  A
N1442      O1445   1.262       .  A
C1447      C1448   1.401       .  A
C1447      C1452   1.405       .  A
C1447      H1454   1.084       .  S
C1448      C1449   1.406       .  A
C1449      C1450   1.400       .  A
C1449      N1456   1.429       .  S
C1450      C1451   1.405       .  A
C1450      H1455   1.084       .  S
C1451      C1452   1.414       .  A
C1452      N1453   1.430       .  S
N1453      O1457   1.262       .  A
N1453      O1458   1.262       .  A
N1456      O1460   1.262       .  A
N1456      O1459   1.262       .  A
C1461      C1462   1.406       .  A
C1461      C1466   1.402       .  A
C1461      H1468   1.084       .  S
C1462      C1463   1.416       .  A
C1463      C1464   1.401       .  A
C1463      N1470   1.428       .  S
C1464      C1465   1.404       .  A
C1464      H1469   1.084       .  S
C1465      C1466   1.416       .  A
C1466      N1467   1.429       .  S
N1467      O1471   1.262       .  A
N1467      O1472   1.262       .  A
N1470      O3522   1.262       .  A
N1470      O1473   1.262       .  A
O1474      N3518   1.261       .  A
C1475      C1476   1.401       .  A
C1475      C1480   1.396       .  A
C1475      H1482   1.081       .  S
C1476      C1477   1.414       .  A
C1477      C1478   1.401       .  A
C1477      N1484   1.433       .  S
C1478      C1479   1.401       .  A
C1478      H1483   1.082       .  S
C1479      C1480   1.411       .  A
C1480      N1481   1.431       .  S
N1481      O1485   1.262       .  A
N1481      O3534   1.262       .  A
N1484      O1488   1.262       .  A
N1484      O1487   1.262       .  A
O1486      N3529   1.262       .  A
C1489      C1490   1.399       .  A
C1489      C1494   1.401       .  A
C1489      H1496   1.084       .  S
C1490      C1491   1.408       .  A
C1491      C1492   1.397       .  A
C1491      N1498   1.430       .  S
C1492      C1493   1.407       .  A
C1492      H1497   1.084       .  S
C1493      C1494   1.422       .  A
C1494      N1495   1.434       .  S
N1495      O3547   1.262       .  A
N1495      O1500   1.262       .  A
N1498      O1502   1.262       .  A
N1498      O1501   1.262       .  A
O1499      N3543   1.262       .  A
C1503      C1504   1.395       .  A
C1503      C1508   1.391       .  A
C1503      H1510   1.085       .  S
C1504      C1505   1.406       .  A
C1505      C1506   1.399       .  A
C1505      N1512   1.432       .  S
C1506      C1507   1.406       .  A
C1506      H1511   1.084       .  S
C1507      C1508   1.416       .  A
C1508      N1509   1.429       .  S
N1509      O1513   1.262       .  A
N1509      O1514   1.262       .  A
N1512      O1516   1.262       .  A
N1512      O1515   1.262       .  A
C1517      C1518   1.402       .  A
C1517      C1522   1.404       .  A
C1517      H1524   1.084       .  S
C1518      C1519   1.410       .  A
C1519      C1520   1.386       .  A
C1519      N1526   1.428       .  S
C1520      C1521   1.401       .  A
C1520      H1525   1.084       .  S
C1521      C1522   1.416       .  A
C1522      N1523   1.429       .  S
N1523      O1527   1.262       .  A
N1523      O1528   1.262       .  A
N1526      O1530   1.262       .  A
N1526      O1529   1.261       .  A
C1531      C1532   1.403       .  A
C1531      C1536   1.399       .  A
C1531      H1538   1.081       .  S
C1532      C1533   1.413       .  A
C1533      C1534   1.398       .  A
C1533      N1540   1.429       .  S
C1534      C1535   1.406       .  A
C1534      H1539   1.084       .  S
C1535      C1536   1.415       .  A
C1536      N1537   1.429       .  S
N1537      O1541   1.262       .  A
N1537      O1542   1.262       .  A
N1540      O1544   1.262       .  A
N1540      O3591   1.262       .  A
O1543      N3588   1.262   1_554  A
C1545      C1546   1.406       .  A
C1545      C1550   1.403       .  A
C1545      H1552   1.084       .  S
C1546      C1547   1.412       .  A
C1547      C1548   1.398       .  A
C1547      N1554   1.430       .  S
C1548      C1549   1.398       .  A
C1548      H1553   1.083       .  S
C1549      C1550   1.406       .  A
C1550      N1551   1.429       .  S
N1551      O1555   1.262       .  A
N1551      O1556   1.262       .  A
N1554      O1558   1.262       .  A
N1554      O1557   1.262       .  A
C1559      C1560   1.399       .  A
C1559      C1564   1.399       .  A
C1559      H1566   1.083       .  S
C1560      C1561   1.405       .  A
C1561      C1562   1.399       .  A
C1561      N1568   1.430       .  S
C1562      C1563   1.409       .  A
C1562      H1567   1.083       .  S
C1563      C1564   1.415       .  A
C1564      N1565   1.429       .  S
N1565      O1569   1.262       .  A
N1565      O1570   1.262       .  A
N1568      O1572   1.262       .  A
N1568      O1571   1.261       .  A
C1573      C1574   1.408   1_556  A
C1573      C1578   1.408       .  A
C1573      H1580   1.084       .  S
C1574      C3623   1.410       .  A
C1575      C1576   1.405       .  A
C1575      C3622   1.412       .  A
C1575      N1582   1.435       .  S
C1576      C1577   1.401       .  A
C1576      H1581   1.083       .  S
C1577      C3626   1.404       .  A
C1578      C3625   1.407   1_556  A
C1578      N1579   1.429       .  S
N1579      O1583   1.262       .  A
N1579      O1584   1.262       .  A
N1582      O1586   1.262       .  A
N1582      O1585   1.262       .  A
C1587      C1588   1.409       .  A
C1587      C1592   1.404       .  A
C1587      H1594   1.084       .  S
C1588      C1589   1.417       .  A
C1589      C1590   1.397       .  A
C1589      N1596   1.432       .  S
C1590      C1591   1.404       .  A
C1590      H1595   1.084       .  S
C1591      C1592   1.413       .  A
C1592      N1593   1.429       .  S
N1593      O1597   1.262       .  A
N1593      O1598   1.262       .  A
N1596      O1600   1.262       .  A
N1596      O1599   1.262       .  A
C1601      C1602   1.407       .  A
C1601      C1606   1.397       .  A
C1601      H1608   1.084       .  S
C1602      C1603   1.415       .  A
C1603      C1604   1.404       .  A
C1603      N1610   1.430       .  S
C1604      C1605   1.402       .  A
C1604      H1609   1.083       .  S
C1605      C1606   1.407       .  A
C1606      N1607   1.433       .  S
N1607      O1611   1.262       .  A
N1607      O1612   1.262       .  A
N1610      O1614   1.262       .  A
N1610      O1613   1.262       .  A
C1615      C1616   1.402       .  A
C1615      C1620   1.402       .  A
C1615      H1622   1.080       .  S
C1616      C1617   1.409       .  A
C1617      C1618   1.395       .  A
C1617      N1624   1.428       .  S
C1618      C1619   1.401       .  A
C1618      H1623   1.085       .  S
C1619      C1620   1.411       .  A
C1620      N1621   1.429       .  S
N1621      O1625   1.262       .  A
N1621      O1626   1.262       .  A
N1624      O1628   1.261   1_554  A
N1624      O1627   1.263       .  A
C1629      C1630   1.408       .  A
C1629      C1634   1.395       .  A
C1629      H1636   1.084       .  S
C1630      C1631   1.415       .  A
C1631      C1632   1.406       .  A
C1631      N1638   1.430       .  S
C1632      C1633   1.403       .  A
C1632      H1637   1.084       .  S
C1633      C1634   1.404       .  A
C1634      N1635   1.432       .  S
N1635      O1639   1.262       .  A
N1635      O1640   1.262       .  A
N1638      O1642   1.262       .  A
N1638      O1641   1.262   1_554  A
C1643      C1644   1.400       .  A
C1643      C1648   1.400       .  A
C1643      H1650   1.084       .  S
C1644      C1645   1.409       .  A
C1645      C1646   1.398       .  A
C1645      N1652   1.430       .  S
C1646      C1647   1.401       .  A
C1646      H1651   1.084       .  S
C1647      C1648   1.412       .  A
C1648      N1649   1.433       .  S
N1649      O1653   1.262       .  A
N1649      O1654   1.262       .  A
N1652      O1656   1.262       .  A
N1652      O1655   1.262       .  A
C1657      C1658   1.407       .  A
C1657      C1662   1.408       .  A
C1657      H1664   1.084       .  S
C1658      C1659   1.411       .  A
C1659      C1660   1.394       .  A
C1659      N1666   1.430       .  S
C1660      C1661   1.399       .  A
C1660      H1665   1.083       .  S
C1661      C1662   1.408       .  A
C1662      N1663   1.429       .  S
N1663      O1667   1.262       .  A
N1663      O1668   1.262       .  A
N1666      O1670   1.262       .  A
N1666      O1669   1.262       .  A
C1671      C1672   1.406       .  A
C1671      C1676   1.401       .  A
C1671      H1678   1.084       .  S
C1672      C1673   1.413       .  A
C1673      C1674   1.402       .  A
C1673      N1680   1.429       .  S
C1674      C1675   1.407       .  A
C1674      H1679   1.082       .  S
C1675      C1676   1.416       .  A
C1676      N3725   1.429       .  S
N1677      C3724   1.430       .  S
N1677      O1681   1.262   1_556  A
N1677      O1682   1.262       .  A
N1680      O1684   1.262       .  A
N1680      O1683   1.262       .  A
C1685      C1686   1.400       .  A
C1685      C1690   1.399       .  A
C1685      H1692   1.085       .  S
C1686      C1687   1.406       .  A
C1687      C1688   1.401       .  A
C1687      N1694   1.428       .  S
C1688      C1689   1.403       .  A
C1688      H1693   1.084       .  S
C1689      C1690   1.407       .  A
C1690      N1691   1.428       .  S
N1691      O1695   1.262       .  A
N1691      O1696   1.260       .  A
N1694      O1698   1.261       .  A
N1694      O1697   1.261       .  A
C1699      C1700   1.398       .  A
C1699      C1704   1.398       .  A
C1699      H1706   1.083       .  S
C1700      C1701   1.408       .  A
C1701      C1702   1.401       .  A
C1701      N1708   1.428       .  S
C1702      C1703   1.404       .  A
C1702      H1707   1.084       .  S
C1703      C1704   1.414       .  A
C1704      N1705   1.429       .  S
N1705      O1709   1.262       .  A
N1705      O1710   1.261       .  A
N1708      O1712   1.261       .  A
N1708      O1711   1.262       .  A
C1713      C1714   1.408       .  A
C1713      C1718   1.399       .  A
C1713      H1720   1.084       .  S
C1714      C2160   1.485   1_554  S
C1714      C1715   1.419       .  A
C1715      C1716   1.399       .  A
C1715      N3770   1.428   1_554  S
C1716      C1717   1.396       .  A
C1716      H1721   1.085       .  S
C1717      C1718   1.402       .  A
C1718      N1719   1.428       .  S
N1719      O1723   1.262       .  A
N1719      O1724   1.262       .  A
N1722      C3763   1.429       .  S
N1722      O1726   1.262       .  A
N1722      O1725   1.262       .  A
C1727      C1728   1.399       .  A
C1727      C1732   1.388       .  A
C1727      H1734   1.084       .  S
C1728      C1729   1.419       .  A
C1729      C1730   1.406       .  A
C1729      N1736   1.429       .  S
C1730      C1731   1.401       .  A
C1730      H1735   1.084       .  S
C1731      C1732   1.410       .  A
C1732      N1733   1.431       .  S
N1733      O1737   1.262       .  A
N1733      O1738   1.262       .  A
N1736      O1740   1.262       .  A
N1736      O1739   1.262       .  A
C1741      C1742   1.389       .  A
C1741      C1746   1.393       .  A
C1741      H1748   1.085       .  S
C1742      C1743   1.414       .  A
C1743      C1744   1.408       .  A
C1743      N1750   1.437       .  S
C1744      C1745   1.406       .  A
C1744      H1749   1.084       .  S
C1745      C1746   1.419       .  A
C1746      N1747   1.429       .  S
N1747      O1751   1.262       .  A
N1747      O1752   1.260       .  A
N1750      O1754   1.262       .  A
N1750      O1753   1.262       .  A
C1755      C1756   1.400       .  A
C1755      C1760   1.394       .  A
C1755      H1762   1.085       .  S
C1756      C1757   1.407       .  A
C1757      C1758   1.404       .  A
C1757      N1764   1.429       .  S
C1758      C1759   1.409       .  A
C1758      H1763   1.084       .  S
C1759      C1760   1.414       .  A
C1760      N1761   1.430       .  S
N1761      O1765   1.262       .  A
N1761      O1766   1.262       .  A
N1764      O1768   1.262       .  A
N1764      O1767   1.262       .  A
C1769      C1770   1.396       .  A
C1769      C3822   1.395       .  A
C1769      H1776   1.082       .  S
C1770      C1771   1.409       .  A
C1771      C1772   1.402       .  A
C1771      N1778   1.431       .  S
C1772      C3821   1.404       .  A
C1772      H1777   1.084       .  S
C1773      C1774   1.410       .  A
C1773      C3820   1.402   1_554  A
C1774      C3817   1.389   1_554  A
C1774      N1775   1.435       .  S
N1775      O1779   1.262       .  A
N1775      O1780   1.263       .  A
N1778      O1782   1.262       .  A
N1778      O1781   1.262       .  A
C1783      C1784   1.400       .  A
C1783      C1788   1.404       .  A
C1783      H1790   1.084       .  S
C1784      C1785   1.404       .  A
C1785      C1786   1.392       .  A
C1785      N1792   1.430       .  S
C1786      C1787   1.405       .  A
C1786      H1791   1.084       .  S
C1787      C1788   1.415       .  A
C1788      N1789   1.429       .  S
N1789      O1793   1.262       .  A
N1789      O1794   1.262       .  A
N1792      O1796   1.262       .  A
N1792      O1795   1.262       .  A
C1797      C1798   1.406       .  A
C1797      C1802   1.405       .  A
C1797      H1804   1.084       .  S
C1798      C1799   1.410       .  A
C1799      C1800   1.397       .  A
C1799      N1806   1.431       .  S
C1800      C1801   1.404       .  A
C1800      H1805   1.085       .  S
C1801      C1802   1.409       .  A
C1802      N1803   1.429       .  S
N1803      O3855   1.262       .  A
N1803      O1808   1.262       .  A
N1806      O1810   1.262       .  A
N1806      O1809   1.262       .  A
O1807      N3851   1.262       .  A
C1811      C1812   1.399       .  A
C1811      C1816   1.402       .  A
C1811      H1818   1.084       .  S
C1812      C1813   1.407       .  A
C1813      C1814   1.399       .  A
C1813      N1820   1.428       .  S
C1814      C1815   1.401       .  A
C1814      H1819   1.085       .  S
C1815      C1816   1.408       .  A
C1816      N1817   1.429       .  S
N1817      O1821   1.262       .  A
N1817      O1822   1.262       .  A
N1820      O1824   1.261       .  A
N1820      O1823   1.261       .  A
C1825      C1826   1.408       .  A
C1825      C1830   1.406       .  A
C1825      H1832   1.084       .  S
C1826      C1827   1.417       .  A
C1827      C1828   1.396       .  A
C1827      N1834   1.432       .  S
C1828      C1829   1.404       .  A
C1828      H1833   1.084       .  S
C1829      C1830   1.413       .  A
C1830      N1831   1.428       .  S
N1831      O1835   1.262       .  A
N1831      O1836   1.262       .  A
N1834      O1838   1.262       .  A
N1834      O1837   1.262       .  A
C1839      C1840   1.406       .  A
C1839      C1844   1.403       .  A
C1839      H1846   1.084       .  S
C1840      C3889   1.414       .  A
C1841      C1842   1.397       .  A
C1841      C3888   1.411       .  A
C1841      N1848   1.426       .  S
C1842      C1843   1.396       .  A
C1842      H1847   1.084       .  S
C1843      C3892   1.406   1_554  A
C1844      C3891   1.404       .  A
C1844      N1845   1.428       .  S
N1845      O1849   1.262       .  A
N1845      O1850   1.261       .  A
N1848      O1852   1.262       .  A
N1848      O1851   1.261       .  A
C1853      C1854   1.402       .  A
C1853      C1858   1.401       .  A
C1853      H1860   1.084       .  S
C1854      C1855   1.412       .  A
C1855      C1856   1.402       .  A
C1855      N3910   1.431       .  S
C1856      C1857   1.401       .  A
C1856      H1861   1.083       .  S
C1857      C1858   1.412       .  A
C1858      N1859   1.429       .  S
N1859      O1863   1.262       .  A
N1859      O1864   1.262       .  A
N1862      C3903   1.430       .  S
N1862      O1866   1.262   1_556  A
N1862      O1865   1.262       .  A
C1867      C1868   1.406       .  A
C1867      C1872   1.407       .  A
C1867      H1874   1.084       .  S
C1868      C1869   1.406       .  A
C1869      C1870   1.394       .  A
C1869      N1876   1.423       .  S
C1870      C1871   1.395       .  A
C1870      H1875   1.083       .  S
C1871      C1872   1.407       .  A
C1872      N1873   1.428       .  S
N1873      O1877   1.261       .  A
N1873      O1878   1.262       .  A
N1876      O1880   1.260       .  A
N1876      O1879   1.262       .  A
C1881      C1882   1.409       .  A
C1881      C1886   1.402       .  A
C1881      H1888   1.084       .  S
C1882      C1883   1.414       .  A
C1883      C1884   1.398       .  A
C1883      N1890   1.432       .  S
C1884      C1885   1.404       .  A
C1884      H1889   1.084       .  S
C1885      C1886   1.411       .  A
C1886      N1887   1.431   1_655  S
N1887      O1891   1.262       .  A
N1887      O1892   1.262       .  A
N1890      O1894   1.262       .  A
N1890      O1893   1.262       .  A
C1895      C1896   1.403       .  A
C1895      C1900   1.397       .  A
C1895      H1902   1.084       .  S
C1896      C1897   1.413       .  A
C1897      C1898   1.406       .  A
C1897      N1904   1.429       .  S
C1898      C1899   1.405       .  A
C1898      H1903   1.084       .  S
C1899      C1900   1.414       .  A
C1900      N1901   1.433       .  S
N1901      O1905   1.262       .  A
N1901      O1906   1.262       .  A
N1904      O1908   1.262       .  A
N1904      O1907   1.262       .  A
C1909      C1910   1.404       .  A
C1909      C1914   1.406       .  A
C1909      H1916   1.084       .  S
C1910      C1911   1.409       .  A
C1911      C1912   1.391       .  A
C1911      N1918   1.435       .  S
C1912      C1913   1.402       .  A
C1912      H1917   1.084       .  S
C1913      C1914   1.413       .  A
C1914      N1915   1.428       .  S
N1915      O1919   1.262       .  A
N1915      O1920   1.262       .  A
N1918      O1922   1.262       .  A
N1918      O1921   1.262       .  A
C1923      C1924   1.399       .  A
C1923      C1928   1.396       .  A
C1923      H1930   1.084       .  S
C1924      C1925   1.406       .  A
C1925      C1926   1.402       .  A
C1925      N1932   1.433       .  S
C1926      C1927   1.405       .  A
C1926      H1931   1.084       .  S
C1927      C1928   1.410       .  A
C1928      N1929   1.431       .  S
N1929      O1933   1.262       .  A
N1929      O1934   1.262       .  A
N1932      O1936   1.261       .  A
N1932      O1935   1.263       .  A
C1937      C1938   1.402       .  A
C1937      C1942   1.401       .  A
C1937      H1944   1.084       .  S
C1938      C1939   1.412       .  A
C1939      C1940   1.402       .  A
C1939      N1946   1.430       .  S
C1940      C1941   1.403       .  A
C1940      H1945   1.084       .  S
C1941      C1942   1.411       .  A
C1942      N1943   1.430       .  S
N1943      O1947   1.262       .  A
N1943      O1948   1.262       .  A
N1946      O1950   1.262       .  A
N1946      O1949   1.262       .  A
C1951      C1952   1.406       .  A
C1951      C1956   1.407       .  A
C1951      H1958   1.084       .  S
C1952      C1953   1.417       .  A
C1953      C1954   1.398       .  A
C1953      N1960   1.432       .  S
C1954      C1955   1.405       .  A
C1954      H1959   1.084       .  S
C1955      C1956   1.414       .  A
C1956      N1957   1.426       .  S
N1957      O1961   1.260       .  A
N1957      O1962   1.262       .  A
N1960      O1964   1.262       .  A
N1960      O1963   1.262       .  A
C1965      C1966   1.406       .  A
C1965      C1970   1.403       .  A
C1965      H1972   1.084       .  S
C1966      C1967   1.410       .  A
C1967      C1968   1.391       .  A
C1967      N1974   1.430       .  S
C1968      C1969   1.395       .  A
C1968      H1973   1.079       .  S
C1969      C1970   1.408       .  A
C1970      N1971   1.434       .  S
N1971      O1975   1.262       .  A
N1971      O1976   1.262       .  A
N1974      O1978   1.262       .  A
N1974      O1977   1.262       .  A
C1979      C1980   1.406       .  A
C1979      C1984   1.393       .  A
C1979      H1986   1.083       .  S
C1980      C1981   1.416       .  A
C1981      C1982   1.401       .  A
C1981      N1988   1.429       .  S
C1982      C1983   1.399       .  A
C1982      H1987   1.084       .  S
C1983      C1984   1.404       .  A
C1984      N1985   1.431       .  S
N1985      O1989   1.262       .  A
N1985      O1990   1.262       .  A
N1988      O1992   1.262       .  A
N1988      O1991   1.262       .  A
C1993      C1994   1.398       .  A
C1993      C1998   1.393       .  A
C1993      H2000   1.085       .  S
C1994      C1995   1.406       .  A
C1995      C1996   1.405       .  A
C1995      N2002   1.428       .  S
C1996      C1997   1.407       .  A
C1996      H2001   1.084       .  S
C1997      C1998   1.411       .  A
C1998      N1999   1.432       .  S
N1999      O2003   1.262       .  A
N1999      O2004   1.262       .  A
N2002      O2006   1.262       .  A
N2002      O2005   1.261       .  A
C2007      C2008   1.400       .  A
C2007      C2012   1.397       .  A
C2007      H2014   1.084       .  S
C2008      C2009   1.413       .  A
C2009      C2010   1.402       .  A
C2009      N2016   1.433       .  S
C2010      C2011   1.402       .  A
C2010      H2015   1.084       .  S
C2011      C2012   1.411       .  A
C2012      N2013   1.433       .  S
N2013      O2017   1.263       .  A
N2013      O2018   1.262       .  A
N2016      O2020   1.262       .  A
N2016      O2019   1.262       .  A
C2021      C2022   1.398       .  A
C2021      C2026   1.398       .  A
C2021      H2028   1.085       .  S
C2022      C2023   1.407       .  A
C2023      C2024   1.402       .  A
C2023      N2030   1.429       .  S
C2024      C2025   1.407       .  A
C2024      H2029   1.084       .  S
C2025      C2026   1.419       .  A
C2026      N2027   1.431       .  S
N2027      O2031   1.262       .  A
N2027      O2032   1.262       .  A
N2030      O2034   1.262       .  A
N2030      O2033   1.262       .  A
C2035      C2036   1.405       .  A
C2035      C2040   1.397       .  A
C2035      H2042   1.084       .  S
C2036      C2037   1.413       .  A
C2037      C2038   1.402       .  A
C2037      N2044   1.429       .  S
C2038      C2039   1.408       .  A
C2038      H2043   1.084       .  S
C2039      C2040   1.415       .  A
C2040      N2041   1.431       .  S
N2041      O2045   1.262       .  A
N2041      O2046   1.262       .  A
N2044      O2048   1.262       .  A
N2044      O2047   1.262       .  A
O2049      C2064   1.263       .  A
O2049     Al2057   1.912       .  S
C2050      O2060   1.258       .  A
C2050      O2051   1.261       .  A
C2050      C4031   1.468       .  S
O2051     Al2053   1.908       .  S
O2052      C2054   1.262       .  A
O2052     Al2053   1.885       .  S
Al2053     O2061   1.896       .  S
Al2053     O2063   1.904       .  S
Al2053     O2062   1.774       .  S
C2054      O2067   1.262       .  A
C2054      C4056   1.465       .  S
O2055      C2065   1.258       .  A
O2055     Al2057   1.900       .  S
O2056      C2069   1.258       .  A
O2056     Al2066   1.871       .  S
Al2057     O2070   1.910       .  S
Al2057     O2067   1.908       .  S
Al2057     O2062   1.787       .  S
O2058      C2065   1.258       .  A
O2058     Al2066   1.897       .  S
O2059      C2068   1.266       .  A
O2059     Al2066   1.920       .  S
O2060     Al2066   1.900       .  S
O2061      C2068   1.262       .  A
O2062     Al2066   1.779       .  S
O2063      C2064   1.259       .  A
C2064      C4073   1.491       .  S
C2065      C4042   1.464       .  S
C2068      C4084   1.487       .  S
C2069      O2070   1.263       .  A
C2069      C4014   1.470       .  S
O2071      C2086   1.260       .  A
O2071     Al2079   1.897       .  S
C2072      O2082   1.265       .  A
C2072      O2073   1.263       .  A
C2072      C3947   1.474       .  S
O2073     Al2075   1.907       .  S
O2074      C2076   1.260       .  A
O2074     Al2075   1.887       .  S
Al2075     O2083   1.906       .  S
Al2075     O2085   1.909       .  S
Al2075     O2084   1.771       .  S
C2076      O2089   1.262       .  A
C2076      C3972   1.465       .  S
O2077      C2087   1.258       .  A
O2077     Al2079   1.907       .  S
O2078      C2091   1.260       .  A
O2078     Al2088   1.874       .  S
Al2079     O2092   1.939       .  S
Al2079     O2089   1.915       .  S
Al2079     O2084   1.788       .  S
O2080      C2087   1.259       .  A
O2080     Al2088   1.907       .  S
O2081      C2090   1.260       .  A
O2081     Al2088   1.911       .  S
O2082     Al2088   1.910       .  S
O2083      C2090   1.262       .  A
O2084     Al2088   1.780       .  S
O2085      C2086   1.261       .  A
C2086      C3989   1.474       .  S
C2087      C4045   1.470       .  S
C2090      C4000   1.487       .  S
C2091      O2092   1.267       .  A
C2091      C3958   1.470       .  S
O2093      C2108   1.260       .  A
O2093     Al2101   1.883       .  S
C2094      O2104   1.260       .  A
C2094      O2095   1.263       .  A
C2094      C4028   1.480       .  S
O2095     Al2097   1.922       .  S
O2096      C2098   1.257       .  A
O2096     Al2097   1.883       .  S
Al2097     O2105   1.878   1_556  S
Al2097     O2106   1.785       .  S
C2098      O2111   1.263   1_556  A
C2098      C3902   1.476       .  S
O2099      C2109   1.262       .  A
O2100      C2113   1.260       .  A
Al2101     O2114   1.916       .  S
O2102      C2109   1.265       .  A
O2102     Al2110   1.922       .  S
O2103      C2112   1.264       .  A
O2103     Al2110   1.934       .  S
O2104     Al2110   1.878       .  S
O2105      C2112   1.255   1_554  A
O2106     Al2110   1.785       .  S
O2107      C2108   1.262       .  A
C2108      C4017   1.458       .  S
C2109      C3930   1.487       .  S
C2112      C3888   1.472   1_556  S
C2113      O2114   1.262       .  A
C2113      C3916   1.470       .  S
O2115      C2130   1.259       .  A
C2116      O2126   1.262       .  A
C2116      O2117   1.267       .  A
C2116      C3944   1.478       .  S
O2117     Al2119   1.930       .  S
O2118      C2120   1.257       .  A
O2118     Al2119   1.886       .  S
Al2119     O2127   1.883       .  S
Al2119     O2128   1.782       .  S
C2120      O2133   1.260       .  A
C2120      C3846   1.475       .  S
O2121      C2131   1.260       .  A
O2121     Al2123   1.899       .  S
O2122     Al2132   1.907       .  S
Al2123     O2133   1.919       .  S
Al2123     O2128   1.776       .  S
O2124      C2131   1.262       .  A
O2124     Al2132   1.917       .  S
O2125      C2134   1.259       .  A
O2125     Al2132   1.916       .  S
O2126     Al2132   1.882       .  S
O2127      C2134   1.255       .  A
O2128     Al2132   1.787       .  S
O2129      C2130   1.262       .  A
C2130      C3961   1.483       .  S
C2131      C3874   1.487       .  S
C2134      C3891   1.460       .  S
C2135      O2136   1.267       .  A
C2135      C3860   1.470       .  S
O2137      C2152   1.259       .  A
O2137     Al2145   1.864       .  S
C2138      O2148   1.259       .  A
C2138      O2139   1.266       .  A
C2138      C3807   1.473       .  S
O2139     Al2141   1.927       .  S
O2140      C2142   1.257       .  A
O2140     Al2141   1.895       .  S
Al2141     O2149   1.882       .  S
Al2141     O2151   1.923       .  S
Al2141     O2150   1.784       .  S
C2142      O2155   1.259       .  A
C2142      C3790   1.468       .  S
O2143      C2153   1.260       .  A
O2143     Al2145   1.894       .  S
O2144      C2157   1.263       .  A
O2144     Al2154   1.913       .  S
Al2145     O2158   1.908       .  S
Al2145     O2155   1.914       .  S
Al2145     O2150   1.774       .  S
O2146      C2153   1.267       .  A
O2146     Al2154   1.924       .  S
O2147      C2156   1.262       .  A
O2147     Al2154   1.930       .  S
O2148     Al2154   1.873       .  S
O2149      C2156   1.255       .  A
O2150     Al2154   1.786       .  S
O2151      C2152   1.264       .  A
C2152      C3818   1.478       .  S
C2153      C4003   1.488       .  S
C2156      C3832   1.469       .  S
C2157      O2158   1.263       .  A
C2157      C3863   1.466       .  S
O2159      C2174   1.260       .  A
O2159     Al2167   1.868       .  S
C2160      O2170   1.263       .  A
C2160      O2161   1.265       .  A
O2161     Al2163   1.918       .  S
O2162      C2164   1.258       .  A
O2162     Al2163   1.893       .  S
Al2163     O2171   1.881       .  S
Al2163     O2173   1.903       .  S
Al2163     O2172   1.786       .  S
C2164      O2177   1.256       .  A
C2164      C3748   1.469       .  S
O2165      C2175   1.260       .  A
O2165     Al2167   1.895       .  S
O2166      C2179   1.265       .  A
O2166     Al2176   1.923       .  S
Al2167     O2180   1.894       .  S
Al2167     O2177   1.894       .  S
Al2167     O2172   1.775       .  S
O2168      C2175   1.265       .  A
O2168     Al2176   1.921       .  S
O2169      C2178   1.261       .  A
O2169     Al2176   1.927       .  S
O2170     Al2176   1.889       .  S
O2171      C2178   1.254       .  A
O2172     Al2176   1.790       .  S
O2173      C2174   1.260       .  A
C2174      C3776   1.474       .  S
C2175      C3720   1.487       .  S
C2178      C3835   1.472       .  S
C2179      O2180   1.260       .  A
C2179      C3734   1.466       .  S
O2181      C2196   1.258       .  A
O2181     Al2189   1.894       .  S
C2182      O2192   1.259       .  A
C2182      O2183   1.268       .  A
C2182      C3804   1.472       .  S
O2183     Al2185   1.924       .  S
O2184      C2186   1.258       .  A
O2184     Al2185   1.879       .  S
Al2185     O2193   1.899       .  S
Al2185     O2195   1.905       .  S
Al2185     O2194   1.769       .  S
C2186      O2199   1.267       .  A
C2186      C3695   1.474       .  S
O2187      C2197   1.263       .  A
O2187     Al2189   1.922       .  S
O2188      C2201   1.259       .  A
O2188     Al2198   1.861       .  S
Al2189     O2202   1.942       .  S
Al2189     O2199   1.942       .  S
Al2189     O2194   1.789       .  S
O2190      C2197   1.256       .  A
O2190     Al2198   1.881       .  S
O2191      C2200   1.261       .  A
O2191     Al2198   1.915       .  S
O2192     Al2198   1.887       .  S
O2193      C2200   1.258       .  A
O2194     Al2198   1.775       .  S
O2195      C2196   1.263       .  A
C2196      C3678   1.476       .  S
C2197      C3706   1.484       .  S
C2200      C3877   1.483       .  S
C2201      O2202   1.271       .  A
C2201      C3821   1.474       .  S
O2203      C2218   1.262       .  A
O2203     Al2211   1.904       .  S
C2204      O2214   1.258       .  A
C2204      O2205   1.266       .  A
C2204      C3765   1.461       .  S
O2205     Al2207   1.925       .  S
O2206      C2208   1.262       .  A
O2206     Al2207   1.884       .  S
Al2207     O2215   1.902       .  S
Al2207     O2217   1.906       .  S
Al2207     O2216   1.763       .  S
C2208      O2221   1.262       .  A
C2208      C3667   1.470       .  S
O2209      C2219   1.261       .  A
O2209     Al2211   1.912       .  S
O2210      C2223   1.258       .  A
O2210     Al2220   1.861       .  S
Al2211     O2224   1.930       .  S
Al2211     O2221   1.918       .  S
Al2211     O2216   1.784       .  S
O2212      C2219   1.261       .  A
O2212     Al2220   1.900       .  S
O2213      C2222   1.261       .  A
O2213     Al2220   1.918       .  S
O2214     Al2220   1.889       .  S
O2215      C2222   1.261       .  A
O2216     Al2220   1.771       .  S
O2217      C2218   1.264       .  A
C2218      C3650   1.479       .  S
C2219      C3709   1.472       .  S
C2222      C3636   1.488       .  S
C2223      O2224   1.267       .  A
C2223      C3779   1.462       .  S
O2225      C2240   1.261       .  A
O2225     Al2233   1.901       .  S
C2226      O2236   1.260       .  A
C2226      O2227   1.260       .  A
C2226      C3608   1.472       .  S
O2227     Al2229   1.907       .  S
O2228      C2230   1.263       .  A
O2228     Al2229   1.894       .  S
C2230      O2243   1.263       .  A
C2230      C3664   1.468       .  S
O2231      C2241   1.261       .  A
O2231     Al2233   1.912       .  S
O2232      C2245   1.261       .  A
O2232     Al2242   1.884       .  S
Al2233     O2246   1.930       .  S
Al2233     O2238   1.793       .  S
O2234      C2241   1.258       .  A
O2234     Al2242   1.895       .  S
O2235      C2244   1.261       .  A
O2235     Al2242   1.916       .  S
O2237      C2244   1.260       .  A
O2238     Al2242   1.783       .  S
O2239      C2240   1.260       .  A
C2240      C3751   1.471       .  S
C2241      C3625   1.469   1_556  S
C2244      C3580   1.483       .  S
C2245      O2246   1.267       .  A
C2245      C3594   1.481       .  S
O2247      C2262   1.263       .  A
O2247     Al2255   1.901       .  S
C2248      O2258   1.259       .  A
C2248      O2249   1.265       .  A
C2248      C3552   1.457       .  S
O2250      C2252   1.261       .  A
Al2251     O2259   1.897       .  S
Al2251     O2261   1.904       .  S
Al2251     O2260   1.772       .  S
C2252      C3527   1.472       .  S
O2253      C2263   1.259       .  A
O2253     Al2255   1.905       .  S
O2254      C2267   1.256       .  A
O2254     Al2264   1.860       .  S
Al2255     O2268   1.933       .  S
Al2255     O2265   1.917       .  S
Al2255     O2260   1.783       .  S
O2256      C2263   1.260       .  A
O2256     Al2264   1.911       .  S
O2257      C2266   1.266       .  A
O2257     Al2264   1.933       .  S
O2259      C2266   1.260       .  A
O2260     Al2264   1.779       .  S
O2261      C2262   1.259       .  A
C2262      C3541   1.486       .  S
C2263      C3622   1.470       .  S
C2266      C3510   1.494       .  S
C2267      O2268   1.267       .  A
C2267      C3566   1.475       .  S
O2269      C2284   1.260       .  A
O2269     Al2277   1.891       .  S
C2270      O2280   1.259       .  A
C2270      O2271   1.262       .  A
C2270      C3611   1.480       .  S
O2271     Al2273   1.911       .  S
O2272      C2274   1.257       .  A
O2272     Al2273   1.884       .  S
Al2273     O2281   1.882       .  S
Al2273     O2283   1.932       .  S
Al2273     O2282   1.783       .  S
C2274      O2287   1.261       .  A
C2274      C3653   1.472       .  S
O2275      C2285   1.263       .  A
O2275     Al2277   1.910       .  S
O2276      C2289   1.260       .  A
O2276     Al2286   1.906       .  S
Al2277     O2290   1.898       .  S
Al2277     O2287   1.923       .  S
Al2277     O2282   1.780       .  S
O2278      C2285   1.264       .  A
O2278     Al2286   1.912       .  S
O2279      C2288   1.262       .  A
O2279     Al2286   1.920       .  S
O2280     Al2286   1.891       .  S
O2281      C2288   1.259       .  A
O2282     Al2286   1.788       .  S
O2283      C2284   1.263       .  A
C2284      C3597   1.472       .  S
C2285      C3482   1.491       .  S
C2288      C3496   1.465       .  S
C2289      O2290   1.262       .  A
C2289      C3468   1.464       .  S
O2291      C2306   1.262       .  A
O2291     Al2299   1.875       .  S
C2292      O2302   1.257       .  A
C2292      O2293   1.265       .  A
C2292      C3555   1.480       .  S
O2293     Al2295   1.917       .  S
O2294      C2296   1.257       .  A
O2294     Al2295   1.886       .  S
Al2295     O2303   1.872       .  S
Al2295     O2305   1.916       .  S
Al2295     O2304   1.784       .  S
C2296      O2309   1.259       .  A
C2296      C3454   1.464       .  S
O2297      C2307   1.263       .  A
O2297     Al2299   1.898       .  S
O2298      C2311   1.259       .  A
O2298     Al2308   1.901       .  S
Al2299     O2312   1.911       .  S
Al2299     O2309   1.914       .  S
Al2299     O2304   1.776       .  S
O2300      C2307   1.267       .  A
O2300     Al2308   1.932       .  S
O2301      C2310   1.263       .  A
O2301     Al2308   1.928       .  S
O2302     Al2308   1.870       .  S
O2303      C2310   1.256       .  A
O2304     Al2308   1.789       .  S
O2305      C2306   1.261       .  A
C2306      C3569   1.481       .  S
C2307      C3443   1.493       .  S
C2310      C3499   1.482       .  S
C2311      O2312   1.263       .  A
C2311      C3426   1.464       .  S
O2313      C2328   1.266       .  A
O2313     Al2321   1.923       .  S
C2314      O2324   1.264       .  A
C2314      O2315   1.266       .  A
C2314      C3370   1.475       .  S
O2315     Al2317   1.914       .  S
O2316      C2318   1.260       .  A
O2316     Al2317   1.883       .  S
Al2317     O2325   1.904       .  S
Al2317     O2327   1.898       .  S
Al2317     O2326   1.765       .  S
C2318      O2331   1.268       .  A
C2318      C3412   1.474       .  S
O2319      C2329   1.265       .  A
O2319     Al2321   1.936       .  S
O2320      C2333   1.260       .  A
O2320     Al2330   1.868       .  S
Al2321     O2334   1.953       .  S
Al2321     O2331   1.937       .  S
Al2321     O2326   1.782       .  S
O2322      C2329   1.259       .  A
O2322     Al2330   1.892       .  S
O2323      C2332   1.263       .  A
O2323     Al2330   1.917   1_655  S
O2324     Al2330   1.913       .  S
O2325      C2332   1.261   1_455  A
O2326     Al2330   1.772       .  S
O2327      C2328   1.261       .  A
C2328      C3398   1.484       .  S
C2329      C3384   1.491       .  S
C2332      C3933   1.479       .  S
C2333      O2334   1.271       .  A
O2335      C2350   1.268       .  A
O2335     Al2343   1.917       .  S
C2336      O2346   1.263       .  A
C2336      O2337   1.264       .  A
C2336      C3345   1.463   1_455  S
O2337     Al2339   1.910       .  S
O2338      C2340   1.260       .  A
O2338     Al2339   1.887       .  S
Al2339     O2347   1.897       .  S
Al2339     O2349   1.891       .  S
Al2339     O2348   1.769       .  S
C2340      O2353   1.261       .  A
C2340      C3524   1.470       .  S
O2341      C2351   1.265       .  A
O2341     Al2343   1.935       .  S
O2342      C2355   1.261       .  A
O2342     Al2352   1.880       .  S
Al2343     O2356   1.945       .  S
Al2343     O2353   1.912       .  S
Al2343     O2348   1.784       .  S
O2344      C2351   1.259       .  A
O2344     Al2352   1.901       .  S
O2345      C2354   1.262       .  A
O2345     Al2352   1.912   1_655  S
O2346     Al2352   1.904       .  S
O2347      C2354   1.258   1_455  A
O2348     Al2352   1.771       .  S
O2349      C2350   1.258       .  A
C2350      C3457   1.488       .  S
C2351      C3387   1.495       .  S
C2354      C3317   1.481       .  S
C2355      O2356   1.269       .  A
C2355      C3328   1.469       .  S
O2357      C2372   1.256   1_655  A
O2357     Al2365   1.861       .  S
C2358      O2368   1.261       .  A
C2358      O2359   1.268       .  A
C2358      C3373   1.480       .  S
O2359     Al2361   1.935   1_655  S
O2360      C2362   1.257       .  A
O2360     Al2361   1.891       .  S
Al2361     O2369   1.883   1_455  S
Al2361     O2371   1.934       .  S
Al2361     O2370   1.784   1_455  S
C2362      O2375   1.257       .  A
C2362      C3300   1.463       .  S
O2363      C2373   1.260       .  A
O2363     Al2365   1.886       .  S
O2364      C2377   1.263       .  A
O2364     Al2374   1.913       .  S
Al2365     O2378   1.900       .  S
Al2365     O2375   1.906   1_655  S
Al2365     O2370   1.774       .  S
O2366      C2373   1.264       .  A
O2366     Al2374   1.930       .  S
O2367      C2376   1.261       .  A
O2367     Al2374   1.927       .  S
O2368     Al2374   1.879       .  S
O2369      C2376   1.257       .  A
O2370     Al2374   1.790       .  S
O2371      C2372   1.266       .  A
C2372      C3359   1.480       .  S
C2373      C4087   1.487       .  S
C2376      C3286   1.481       .  S
C2377      O2378   1.262       .  A
C2377      C3919   1.463       .  S
O2379      C2394   1.266   1_655  A
O2379     Al2387   1.918       .  S
C2380      O2390   1.268       .  A
C2380      O2381   1.263       .  A
C2380      C3342   1.469       .  S
O2381     Al2383   1.878       .  S
O2382      C2384   1.261       .  A
O2382     Al2383   1.919   1_455  S
Al2383     O2391   1.890       .  S
Al2383     O2393   1.900   1_655  S
Al2383     O2392   1.789       .  S
C2384      O2397   1.258   1_455  A
C2384      C3538   1.471       .  S
O2385      C2395   1.261       .  A
O2385     Al2387   1.908       .  S
O2386      C2399   1.261       .  A
O2386     Al2396   1.917       .  S
Al2387     O2400   1.872       .  S
Al2387     O2397   1.892       .  S
Al2387     O2392   1.773       .  S
O2388      C2395   1.263       .  A
O2388     Al2396   1.921       .  S
O2389      C2398   1.260       .  A
O2389     Al2396   1.921       .  S
O2390     Al2396   1.924       .  S
O2391      C2398   1.256       .  A
O2392     Al2396   1.790       .  S
O2393      C2394   1.261       .  A
C2394      C3331   1.487       .  S
C2395      C3258   1.493       .  S
C2398      C3289   1.474       .  S
C2399      O2400   1.259       .  A
C2399      C3272   1.469       .  S
O2401      C2416   1.262       .  A
O2401     Al2409   1.913       .  S
C2402      O2412   1.258       .  A
C2402      O2403   1.264       .  A
C2402      C3233   1.470       .  S
O2403     Al2405   1.901       .  S
O2404      C2406   1.259       .  A
O2404     Al2405   1.874       .  S
Al2405     O2413   1.894       .  S
Al2405     O2415   1.901       .  S
Al2405     O2414   1.766       .  S
C2406      O2419   1.268       .  A
C2406      C3975   1.471       .  S
O2407      C2417   1.262       .  A
O2407     Al2409   1.918       .  S
O2408      C2421   1.258       .  A
O2408     Al2418   1.857       .  S
Al2409     O2422   1.934       .  S
Al2409     O2419   1.938       .  S
Al2409     O2414   1.782       .  S
O2410      C2417   1.258       .  A
O2410     Al2418   1.886       .  S
O2411      C2420   1.264       .  A
O2411     Al2418   1.925       .  S
O2412     Al2418   1.888       .  S
O2413      C2420   1.261       .  A
O2414     Al2418   1.775       .  S
O2415      C2416   1.260       .  A
C2416      C3849   1.479       .  S
C2417      C3244   1.483       .  S
C2420      C3202   1.472       .  S
C2421      O2422   1.269       .  A
C2421      C3216   1.473       .  S
O2423      C2438   1.262       .  A
O2423     Al2431   1.913       .  S
C2424      O2434   1.260       .  A
C2424      O2425   1.265       .  A
C2424      C3177   1.465       .  S
O2425     Al2427   1.923       .  S
O2426      C2428   1.262       .  A
O2426     Al2427   1.876       .  S
Al2427     O2435   1.904       .  S
Al2427     O2437   1.901       .  S
Al2427     O2436   1.764       .  S
C2428      O2441   1.265       .  A
C2428      C3160   1.472       .  S
O2429      C2439   1.262       .  A
O2429     Al2431   1.915       .  S
O2430      C2443   1.258       .  A
O2430     Al2440   1.855       .  S
Al2431     O2444   1.930       .  S
Al2431     O2441   1.930       .  S
Al2431     O2436   1.788       .  S
O2432      C2439   1.260       .  A
O2432     Al2440   1.896       .  S
O2433      C2442   1.265       .  A
O2433     Al2440   1.927       .  S
O2434     Al2440   1.899       .  S
O2435      C2442   1.261       .  A
O2436     Al2440   1.772       .  S
O2437      C2438   1.262       .  A
C2438      C3146   1.479       .  S
C2439      C3247   1.473       .  S
C2442      C3485   1.485       .  S
C2443      O2444   1.267       .  A
C2443      C3191   1.462       .  S
O2445      C2460   1.259       .  A
O2445     Al2453   1.859       .  S
C2446      O2456   1.257       .  A
C2446      O2447   1.265       .  A
C2446      C3230   1.458       .  S
O2447     Al2449   1.926       .  S
O2448      C2450   1.257       .  A
O2448     Al2449   1.886       .  S
Al2449     O2457   1.869       .  S
Al2449     O2459   1.911       .  S
Al2449     O2458   1.784       .  S
C2450      O2463   1.258       .  A
C2450      C3986   1.476       .  S
O2451      C2461   1.257       .  A
O2451     Al2453   1.877       .  S
O2452      C2465   1.261       .  A
O2452     Al2462   1.900       .  S
Al2453     O2466   1.910       .  S
Al2453     O2463   1.909       .  S
Al2453     O2458   1.773       .  S
O2454      C2461   1.268       .  A
O2454     Al2462   1.946       .  S
O2455      C2464   1.265       .  A
O2455     Al2462   1.943       .  S
O2456     Al2462   1.861       .  S
O2457      C2464   1.253       .  A
O2458     Al2462   1.792       .  S
O2459      C2460   1.262       .  A
C2460      C3219   1.477       .  S
C2461      C3104   1.489       .  S
C2464      C3132   1.486       .  S
C2465      O2466   1.265       .  A
C2465      C3121   1.461       .  S
O2467      C2482   1.256       .  A
O2467     Al2475   1.860       .  S
C2468      O2478   1.259       .  A
C2468      O2469   1.269       .  A
O2469     Al2471   1.927       .  S
O2470      C2472   1.257       .  A
O2470     Al2471   1.892       .  S
Al2471     O2479   1.889       .  S
Al2471     O2481   1.923       .  S
Al2471     O2480   1.783       .  S
C2472      O2485   1.258       .  A
C2472      C3093   1.474       .  S
O2473      C2483   1.258       .  A
O2473     Al2475   1.885       .  S
O2474      C2487   1.260       .  A
O2474     Al2484   1.902       .  S
Al2475     O2488   1.905       .  S
Al2475     O2485   1.909       .  S
Al2475     O2480   1.775       .  S
O2476      C2483   1.267       .  A
O2476     Al2484   1.935       .  S
O2477      C2486   1.259       .  A
O2477     Al2484   1.920       .  S
O2478     Al2484   1.869       .  S
O2479      C2486   1.255       .  A
O2480     Al2484   1.789       .  S
O2481      C2482   1.266       .  A
C2482      C3188   1.477       .  S
C2483      C3583   1.486       .  S
C2486      C3135   1.469       .  S
C2487      O2488   1.263       .  A
C2487      C3471   1.458       .  S
O2489      C2504   1.266       .  A
O2489     Al2497   1.926       .  S
C2490      O2500   1.260       .  A
C2490      O2491   1.267       .  A
C2490      C3037   1.459       .  S
O2492      C2494   1.261       .  A
Al2493     O2501   1.906       .  S
Al2493     O2503   1.897       .  S
Al2493     O2502   1.770       .  S
C2494      C3062   1.471       .  S
O2495      C2505   1.262       .  A
O2495     Al2497   1.922       .  S
O2496      C2509   1.256       .  A
O2496     Al2506   1.863       .  S
Al2497     O2510   1.935       .  S
Al2497     O2507   1.922       .  S
Al2497     O2502   1.785       .  S
O2498      C2505   1.259       .  A
O2498     Al2506   1.905       .  S
O2499      C2508   1.266       .  A
O2499     Al2506   1.932       .  S
O2501      C2508   1.263       .  A
O2502     Al2506   1.779       .  S
O2503      C2504   1.258       .  A
C2504      C3076   1.493       .  S
C2505      C3048   1.475       .  S
C2508      C3261   1.494       .  S
C2509      O2510   1.268       .  A
C2509      C3020   1.484       .  S
O2511      C2526   1.263       .  A
O2511     Al2519   1.906       .  S
C2512      O2522   1.261       .  A
C2512      O2513   1.264       .  A
C2512      C2992   1.474       .  S
O2513     Al2515   1.912       .  S
O2514      C2516   1.261       .  A
O2514     Al2515   1.893       .  S
C2516      C3163   1.464       .  S
O2517      C2527   1.262       .  A
O2517     Al2519   1.916       .  S
O2518      C2531   1.262       .  A
O2518     Al2528   1.882       .  S
Al2519     O2532   1.916       .  S
Al2519     O2529   1.908   1_556  S
Al2519     O2524   1.791       .  S
O2520      C2527   1.260       .  A
O2520     Al2528   1.896       .  S
O2521      C2530   1.261       .  A
O2521     Al2528   1.917       .  S
O2523      C2530   1.259       .  A
O2524     Al2528   1.779       .  S
O2525      C2526   1.263       .  A
C2526      C3090   1.479       .  S
C2527      C3051   1.474   1_556  S
C2530      C3723   1.488       .  S
C2531      O2532   1.264       .  A
C2531      C3006   1.469       .  S
O2533      C2548   1.261       .  A
O2533     Al2541   1.872       .  S
C2534      O2544   1.256       .  A
C2534      O2535   1.265       .  A
C2534      C3034   1.476       .  S
O2535     Al2537   1.928       .  S
O2536      C2538   1.256       .  A
O2536     Al2537   1.892       .  S
Al2537     O2545   1.881       .  S
Al2537     O2547   1.929       .  S
Al2537     O2546   1.781       .  S
C2538      O2551   1.259       .  A
C2538      C2978   1.469       .  S
O2539      C2549   1.265       .  A
O2539     Al2541   1.896       .  S
O2540      C2553   1.262       .  A
O2540     Al2550   1.909       .  S
Al2541     O2554   1.905       .  S
Al2541     O2551   1.916       .  S
Al2541     O2546   1.774       .  S
O2542      C2549   1.262       .  A
O2542     Al2550   1.912       .  S
O2543      C2552   1.260       .  A
O2543     Al2550   1.909       .  S
O2544     Al2550   1.862       .  S
O2545      C2552   1.255       .  A
O2546     Al2550   1.783       .  S
O2547      C2548   1.266       .  A
C2548      C3023   1.476       .  S
C2549      C3314   1.485       .  S
C2552      C2964   1.465       .  S
C2553      O2554   1.261       .  A
C2553      C3275   1.464       .  S
O2555      C2570   1.258       .  A
O2555     Al2563   1.878       .  S
C2556      O2566   1.259       .  A
C2556      O2557   1.264       .  A
C2556      C2995   1.476       .  S
O2557     Al2559   1.919       .  S
O2558      C2560   1.255       .  A
O2558     Al2559   1.877       .  S
Al2559     O2567   1.880       .  S
Al2559     O2569   1.920       .  S
Al2559     O2568   1.778       .  S
C2560      O2573   1.263       .  A
C2560      C3149   1.477       .  S
O2561      C2571   1.263       .  A
O2561     Al2563   1.905       .  S
O2562      C2575   1.263       .  A
O2562     Al2572   1.910       .  S
Al2563     O2576   1.918       .  S
Al2563     O2573   1.935       .  S
Al2563     O2568   1.779       .  S
O2564      C2571   1.264       .  A
O2564     Al2572   1.903       .  S
O2565      C2574   1.260       .  A
O2565     Al2572   1.921       .  S
O2566     Al2572   1.881       .  S
O2567      C2574   1.256       .  A
O2568     Al2572   1.781       .  S
O2569      C2570   1.263       .  A
C2570      C3009   1.458       .  S
C2571      C3639   1.484       .  S
C2574      C2967   1.461       .  S
C2575      O2576   1.265       .  A
C2575      C3737   1.470       .  S
O2577      C2592   1.266       .  A
O2577     Al2585   1.922       .  S
C2578      O2588   1.255       .  A
C2578      O2579   1.262       .  A
C2578      C2936   1.446       .  S
O2579     Al2581   1.912       .  S
O2580      C2582   1.263       .  A
O2580     Al2581   1.892       .  S
Al2581     O2589   1.909       .  S
Al2581     O2591   1.890       .  S
Al2581     O2590   1.770       .  S
C2582      O2595   1.265       .  A
C2582      C3692   1.474       .  S
O2583      C2593   1.262       .  A
O2583     Al2585   1.932       .  S
O2584      C2597   1.254       .  A
O2584     Al2594   1.840       .  S
Al2585     O2598   1.947       .  S
Al2585     O2595   1.923       .  S
Al2585     O2590   1.786       .  S
O2586      C2593   1.256       .  A
O2586     Al2594   1.896       .  S
O2587      C2596   1.260       .  A
O2587     Al2594   1.915       .  S
O2588     Al2594   1.868       .  S
O2589      C2596   1.263       .  A
O2590     Al2594   1.777       .  S
O2591      C2592   1.258       .  A
C2592      C3793   1.492       .  S
C2593      C2950   1.487       .  S
C2596      C3107   1.484       .  S
C2597      O2598   1.272       .  A
C2597      C2922   1.479       .  S
O2599      C2614   1.265       .  A
O2599     Al2607   1.917       .  S
C2600      O2610   1.259       .  A
C2600      O2601   1.260       .  A
C2600      C2894   1.462       .  S
O2601     Al2603   1.905       .  S
O2602      C2604   1.263       .  A
O2602     Al2603   1.897       .  S
Al2603     O2611   1.909       .  S
Al2603     O2613   1.891       .  S
Al2603     O2612   1.775       .  S
C2604      O2617   1.266       .  A
C2604      C3415   1.472       .  S
O2605      C2615   1.262       .  A
O2605     Al2607   1.930       .  S
O2606      C2619   1.259       .  A
O2606     Al2616   1.870       .  S
Al2607     O2620   1.945       .  S
Al2607     O2617   1.924       .  S
Al2607     O2612   1.787       .  S
O2608      C2615   1.259       .  A
O2608     Al2616   1.884       .  S
O2609      C2618   1.263       .  A
O2609     Al2616   1.912       .  S
O2610     Al2616   1.896       .  S
O2611      C2618   1.263       .  A
O2612     Al2616   1.774       .  S
O2613      C2614   1.257       .  A
C2614      C3303   1.489       .  S
C2615      C2953   1.490       .  S
C2618      C2883   1.485       .  S
C2619      O2620   1.270       .  A
C2619      C2908   1.485       .  S
O2621      C2636   1.261       .  A
C2622      O2632   1.260       .  A
C2622      O2623   1.263       .  A
C2622      C2939   1.474       .  S
O2623     Al2625   1.911       .  S
O2624      C2626   1.257       .  A
O2624     Al2625   1.889       .  S
Al2625     O2633   1.882       .  S
Al2625     O2634   1.788       .  S
C2626      O2639   1.259       .  A
C2626      C3681   1.470       .  S
O2627      C2637   1.258       .  A
O2627     Al2629   1.889       .  S
O2628     Al2638   1.905       .  S
Al2629     O2639   1.907       .  S
Al2629     O2634   1.776       .  S
O2630      C2637   1.266       .  A
O2630     Al2638   1.925       .  S
O2631      C2640   1.260       .  A
O2631     Al2638   1.921       .  S
O2632     Al2638   1.867       .  S
O2633      C2640   1.254       .  A
O2634     Al2638   1.787       .  S
O2635      C2636   1.264       .  A
C2636      C2925   1.469       .  S
C2637      C3205   1.481       .  S
C2640      C2869   1.464       .  S
C2641      O2642   1.262       .  A
C2641      C3118   1.463       .  S
O2643      C2658   1.259       .  A
O2643     Al2651   1.882       .  S
C2644      O2654   1.257       .  A
C2644      O2645   1.264       .  A
C2644      C2897   1.475       .  S
O2645     Al2647   1.923       .  S
O2646      C2648   1.257       .  A
O2646     Al2647   1.888       .  S
Al2647     O2655   1.881   1_556  S
Al2647     O2656   1.776       .  S
C2648      O2661   1.262       .  A
C2648      C3401   1.475       .  S
O2649      C2659   1.262       .  A
O2650      C2663   1.261       .  A
Al2651     O2664   1.905       .  S
O2652      C2659   1.269       .  A
O2652     Al2660   1.926       .  S
O2653      C2662   1.264       .  A
O2653     Al2660   1.933       .  S
O2654     Al2660   1.867       .  S
O2655      C2662   1.259   1_554  A
O2656     Al2660   1.784       .  S
O2657      C2658   1.267       .  A
C2658      C2911   1.472       .  S
C2659      C2852   1.486       .  S
C2662      C2866   1.484   1_556  S
C2663      O2664   1.262       .  A
C2663      C2838   1.464       .  S
O2665      C2680   1.262       .  A
O2665     Al2673   1.904       .  S
C2666      O2676   1.261       .  A
C2666      O2667   1.264   1_455  A
C2666      C2810   1.461       .  S
O2667     Al2669   1.911       .  S
O2668      C2670   1.259       .  A
O2668     Al2669   1.877       .  S
Al2669     O2677   1.893   1_655  S
Al2669     O2679   1.907       .  S
Al2669     O2678   1.773       .  S
C2670      O2683   1.261       .  A
C2670      C4059   1.464       .  S
O2671      C2681   1.259       .  A
O2671     Al2673   1.913       .  S
O2672      C2685   1.260   1_455  A
O2672     Al2682   1.863       .  S
Al2673     O2686   1.930       .  S
Al2673     O2683   1.912       .  S
Al2673     O2678   1.790       .  S
O2674      C2681   1.257       .  A
O2674     Al2682   1.901   1_655  S
O2675      C2684   1.260       .  A
O2675     Al2682   1.915       .  S
O2676     Al2682   1.889       .  S
O2677      C2684   1.260       .  A
O2678     Al2682   1.780   1_655  S
O2679      C2680   1.261       .  A
C2680      C3905   1.477       .  S
C2681      C2824   1.471       .  S
C2684      C2855   1.486       .  S
C2685      O2686   1.267       .  A
O2687      C2702   1.261       .  A
O2687     Al2695   1.901       .  S
C2688      O2698   1.262       .  A
C2688      O2689   1.264   1_455  A
C2688      C2768   1.470       .  S
O2689     Al2691   1.913       .  S
O2690      C2692   1.262       .  A
O2690     Al2691   1.885       .  S
Al2691     O2699   1.904   1_655  S
Al2691     O2701   1.909       .  S
Al2691     O2700   1.768       .  S
C2692      O2705   1.265       .  A
C2692      C3065   1.476       .  S
O2693      C2703   1.259       .  A
O2693     Al2695   1.906       .  S
O2694      C2707   1.259   1_455  A
O2694     Al2704   1.871       .  S
Al2695     O2708   1.939       .  S
Al2695     O2705   1.929       .  S
Al2695     O2700   1.785       .  S
O2696      C2703   1.263       .  A
O2696     Al2704   1.918   1_655  S
O2697      C2706   1.266       .  A
O2697     Al2704   1.929       .  S
O2698     Al2704   1.906       .  S
O2699      C2706   1.262       .  A
O2700     Al2704   1.776   1_655  S
O2701      C2702   1.262       .  A
C2702      C2981   1.482       .  S
C2703      C2827   1.479       .  S
C2706      C3440   1.493       .  S
C2707      O2708   1.267       .  A
C2707      C2782   1.475       .  S
O2709      C2724   1.263       .  A
O2709     Al2717   1.874       .  S
C2710      O2720   1.259       .  A
C2710      O2711   1.260       .  A
C2710      C2813   1.476       .  S
O2711     Al2713   1.908       .  S
O2712      C2714   1.256       .  A
O2712     Al2713   1.898   1_655  S
Al2713     O2721   1.886       .  S
Al2713     O2723   1.919       .  S
Al2713     O2722   1.784       .  S
C2714      O2727   1.256   1_655  A
C2714      C4070   1.470       .  S
O2715      C2725   1.264       .  A
O2715     Al2717   1.896       .  S
O2716      C2729   1.260       .  A
O2716     Al2726   1.915       .  S
Al2717     O2730   1.903       .  S
Al2717     O2727   1.914       .  S
Al2717     O2722   1.780       .  S
O2718      C2725   1.269       .  A
O2718     Al2726   1.931       .  S
O2719      C2728   1.261       .  A
O2719     Al2726   1.923       .  S
O2720     Al2726   1.876       .  S
O2721      C2728   1.257       .  A
O2722     Al2726   1.784       .  S
O2723      C2724   1.265       .  A
C2724      C2799   1.475       .  S
C2725      C2880   1.490       .  S
C2728      C2754   1.470       .  S
C2729      O2730   1.260       .  A
C2729      C2841   1.468       .  S
O2731      C2746   1.261       .  A
O2731     Al2739   1.874       .  S
C2732      O2742   1.258       .  A
C2732      O2733   1.265       .  A
C2732      C2771   1.473       .  S
O2733     Al2735   1.926       .  S
O2734      C2736   1.256       .  A
O2734     Al2735   1.890   1_655  S
Al2735     O2743   1.876       .  S
Al2735     O2745   1.930       .  S
Al2735     O2744   1.781       .  S
C2736      O2749   1.261   1_655  A
C2736      C3079   1.471       .  S
O2737      C2747   1.264       .  A
O2737     Al2739   1.900       .  S
O2738      C2751   1.261       .  A
O2738     Al2748   1.906       .  S
Al2739     O2752   1.908       .  S
Al2739     O2749   1.926       .  S
Al2739     O2744   1.775       .  S
O2740      C2747   1.266       .  A
O2740     Al2748   1.932       .  S
O2741      C2750   1.264       .  A
O2741     Al2748   1.934       .  S
O2742     Al2748   1.873       .  S
O2743      C2750   1.256       .  A
O2744     Al2748   1.789       .  S
O2745      C2746   1.265       .  A
C2746      C2785   1.485       .  S
C2747      C3513   1.493       .  S
C2750      C2757   1.481       .  S
C2751      O2752   1.264       .  A
C2751      C3429   1.463       .  S
C2753      C2754   1.403       .  A
C2753      C2758   1.407       .  A
C2753      H2760   1.084       .  S
C2754      C2755   1.405       .  A
C2755      C2756   1.396       .  A
C2755      N2762   1.428       .  S
C2756      C2757   1.404   1_545  A
C2756      H2761   1.084   1_545  S
C2757      C2758   1.414   1_565  A
C2758      N2759   1.429       .  S
N2759      O2763   1.262       .  A
N2759      O2764   1.262       .  A
N2762      O2766   1.262       .  A
N2762      O2765   1.262       .  A
C2767      C2768   1.401       .  A
C2767      C2772   1.394       .  A
C2767      H2774   1.085       .  S
C2768      C2769   1.407       .  A
C2769      N2776   1.430   1_455  S
C2770      C2771   1.405       .  A
C2770      H2775   1.084       .  S
C2772      N2773   1.429   1_556  S
N2773      O2777   1.262       .  A
N2776      O2780   1.262       .  A
N2776      O2779   1.262       .  A
C2781      C2782   1.403       .  A
C2781      C2786   1.407       .  A
C2781      H2788   1.084       .  S
C2782      C2783   1.410   1_655  A
C2783      C2784   1.390       .  A
C2783      N2790   1.429       .  S
C2784      C2785   1.402       .  A
C2784      H2789   1.084       .  S
C2785      C2786   1.417   1_455  A
C2786      N2787   1.428       .  S
N2787      O2791   1.262       .  A
N2787      O2792   1.262       .  A
N2790      O2794   1.262       .  A
N2790      O2793   1.261       .  A
C2795      C2796   1.404       .  A
C2795      C2800   1.401       .  A
C2795      H2802   1.084       .  S
C2796      C2797   1.417   1_655  A
C2797      C2798   1.390       .  A
C2798      C2799   1.400       .  A
C2798      H2803   1.085       .  S
C2799      C2800   1.414   1_455  A
C2800      N2801   1.430       .  S
N2801      O2805   1.262       .  A
N2801      O2806   1.262       .  A
N2804      O2808   1.262       .  A
N2804      O2807   1.262       .  A
C2809      C2810   1.398       .  A
C2809      C2814   1.400       .  A
C2809      H2816   1.084   1_455  S
C2810      C2811   1.406       .  A
C2811      C2812   1.392       .  A
C2811      N2818   1.431       .  S
C2812      C2813   1.405       .  A
C2812      H2817   1.083       .  S
C2813      C2814   1.417       .  A
C2814      N2815   1.430   1_455  S
N2815      O2819   1.262   1_655  A
N2815      O2820   1.262       .  A
N2818      O2822   1.262       .  A
N2818      O2821   1.261       .  A
C2823      C2824   1.400       .  A
C2823      C2828   1.397       .  A
C2823      H2830   1.083       .  S
C2824      C2825   1.408       .  A
C2825      C2826   1.408       .  A
C2825      N2832   1.430       .  S
C2826      C2827   1.408   1_545  A
C2826      H2831   1.084   1_545  S
C2827      C2828   1.410   1_565  A
C2828      N2829   1.432       .  S
N2829      O2833   1.262       .  A
N2829      O2834   1.262   1_655  A
N2832      O2836   1.262       .  A
N2832      O2835   1.262       .  A
C2837      C2838   1.397       .  A
C2837      C2842   1.394       .  A
C2837      H2844   1.084       .  S
C2838      C2839   1.411       .  A
C2839      C2840   1.406       .  A
C2839      N2846   1.430       .  S
C2840      C2841   1.403       .  A
C2840      H2845   1.084       .  S
C2841      C2842   1.409       .  A
C2842      N2843   1.429       .  S
N2843      O2847   1.261       .  A
N2843      O2848   1.262       .  A
C2851      C2852   1.405       .  A
C2851      C2856   1.397       .  A
C2851      H2858   1.084       .  S
C2852      C2853   1.414       .  A
C2853      C2854   1.400       .  A
C2853      N2860   1.429       .  S
C2854      C2855   1.405       .  A
C2854      H2859   1.083       .  S
C2855      C2856   1.416       .  A
C2856      N2857   1.430       .  S
N2857      O2861   1.262       .  A
N2857      O2862   1.262       .  A
N2860      O2863   1.262       .  A
C2865      C2870   1.397       .  A
C2865      H2872   1.084       .  S
C2866      C2867   1.415   1_554  A
C2867      C2868   1.407       .  A
C2867      N2874   1.428       .  S
C2868      H2873   1.084       .  S
C2869      C2870   1.406       .  A
C2870      N2871   1.429       .  S
N2871      O2875   1.261       .  A
N2871      O2876   1.262       .  A
N2874      O2878   1.262       .  A
N2874      O2877   1.262       .  A
C2879      C2880   1.408       .  A
C2879      C2884   1.405       .  A
C2879      H2886   1.084       .  S
C2880      C2881   1.414       .  A
C2881      C2882   1.399       .  A
C2881      N2888   1.433       .  S
C2882      C2883   1.405       .  A
C2882      H2887   1.084       .  S
C2883      C2884   1.414       .  A
C2884      N2885   1.433       .  S
N2885      O2889   1.262       .  A
N2885      O2890   1.262       .  A
N2888      O2892   1.262       .  A
N2888      O2891   1.262       .  A
C2893      C2894   1.400       .  A
C2893      C2898   1.401       .  A
C2893      H2900   1.084       .  S
C2894      C2895   1.406       .  A
C2895      C2896   1.392       .  A
C2895      N2902   1.431       .  S
C2896      C2897   1.405       .  A
C2896      H2901   1.084       .  S
C2897      C2898   1.413       .  A
C2898      N2899   1.429       .  S
N2899      O2903   1.262       .  A
N2899      O2904   1.262       .  A
N2902      O2906   1.262       .  A
N2902      O2905   1.262       .  A
C2907      C2908   1.406       .  A
C2907      C2912   1.405       .  A
C2907      H2914   1.084       .  S
C2908      C2909   1.416       .  A
C2909      C2910   1.396       .  A
C2909      N2916   1.431       .  S
C2910      C2911   1.398       .  A
C2910      H2915   1.084       .  S
C2911      C2912   1.408       .  A
C2912      N2913   1.428       .  S
N2913      O2917   1.261       .  A
N2913      O2918   1.261       .  A
N2916      O2920   1.262       .  A
N2916      O2919   1.262       .  A
C2921      C2922   1.406       .  A
C2921      C2926   1.402       .  A
C2921      H2928   1.083       .  S
C2922      C2923   1.420       .  A
C2923      C2924   1.386       .  A
C2923      N2930   1.432       .  S
C2924      C2925   1.397       .  A
C2924      H2929   1.085       .  S
C2925      C2926   1.411       .  A
C2926      N2927   1.430       .  S
N2927      O2931   1.262       .  A
N2927      O2932   1.262       .  A
N2930      O2934   1.262       .  A
N2930      O2933   1.262       .  A
C2935      C2936   1.395       .  A
C2935      C2940   1.394       .  A
C2935      H2942   1.085       .  S
C2936      C2937   1.400       .  A
C2937      C2938   1.391       .  A
C2937      N2944   1.430       .  S
C2938      C2939   1.408       .  A
C2938      H2943   1.084       .  S
C2939      C2940   1.417       .  A
C2940      N2941   1.429       .  S
N2941      O2945   1.261       .  A
N2941      O2946   1.262       .  A
N2944      O2948   1.262       .  A
N2944      O2947   1.262       .  A
C2949      C2950   1.409       .  A
C2949      C2954   1.415       .  A
C2949      H2956   1.083       .  S
C2950      C2951   1.415       .  A
C2951      C2952   1.388       .  A
C2951      N2958   1.430       .  S
C2952      C2953   1.401       .  A
C2952      H2957   1.084       .  S
C2953      C2954   1.415       .  A
C2954      N2955   1.428       .  S
N2955      O2959   1.261       .  A
N2955      O2960   1.262       .  A
N2958      O2962   1.262       .  A
N2958      O2961   1.262       .  A
C2963      C2964   1.400       .  A
C2963      C2968   1.398       .  A
C2963      H2970   1.084       .  S
C2964      C2965   1.409       .  A
C2965      C2966   1.398       .  A
C2965      N2972   1.430       .  S
C2966      C2967   1.401       .  A
C2966      H2971   1.084       .  S
C2967      C2968   1.406       .  A
C2968      N2969   1.429       .  S
N2969      O2973   1.262       .  A
N2969      O2974   1.262       .  A
N2972      O2976   1.262       .  A
N2972      O2975   1.262       .  A
C2977      C2978   1.403       .  A
C2977      C2982   1.403       .  A
C2977      H2984   1.084       .  S
C2978      C2979   1.406       .  A
C2979      C2980   1.397       .  A
C2979      N2986   1.430       .  S
C2980      C2981   1.407       .  A
C2980      H2985   1.084       .  S
C2981      C2982   1.413       .  A
C2982      N2983   1.429       .  S
N2983      O2987   1.262       .  A
N2983      O2988   1.262       .  A
N2986      O2990   1.262       .  A
N2986      O2989   1.262       .  A
C2991      C2992   1.402       .  A
C2991      C2996   1.395       .  A
C2991      H2998   1.084       .  S
C2992      C2993   1.409       .  A
C2993      C2994   1.401       .  A
C2993      N3000   1.429       .  S
C2994      C2995   1.404       .  A
C2994      H2999   1.084       .  S
C2995      C2996   1.413       .  A
C2996      N2997   1.430       .  S
N2997      O3001   1.261       .  A
N2997      O3002   1.262       .  A
N3000      O3004   1.262       .  A
N3000      O3003   1.262       .  A
C3005      C3006   1.406       .  A
C3005      C3010   1.399       .  A
C3005      H3012   1.084       .  S
C3006      C3007   1.408       .  A
C3007      C3008   1.396       .  A
C3007      N3014   1.432       .  S
C3008      C3009   1.398       .  A
C3008      H3013   1.081       .  S
C3009      C3010   1.404       .  A
C3010      N3011   1.431       .  S
N3011      O3015   1.262       .  A
N3011      O3016   1.262       .  A
N3014      O3018   1.262       .  A
N3014      O3017   1.262       .  A
C3019      C3020   1.408       .  A
C3019      C3024   1.405       .  A
C3019      H3026   1.084       .  S
C3020      C3021   1.417       .  A
C3021      C3022   1.391       .  A
C3021      N3028   1.430       .  S
C3022      C3023   1.400       .  A
C3022      H3027   1.085       .  S
C3023      C3024   1.412       .  A
C3024      N3025   1.430       .  S
N3025      O3029   1.262       .  A
N3025      O3030   1.262       .  A
N3028      O3032   1.262       .  A
N3028      O3031   1.262       .  A
C3033      C3034   1.408       .  A
C3033      C3038   1.405       .  A
C3033      H3040   1.083       .  S
C3034      C3035   1.415       .  A
C3035      C3036   1.385       .  A
C3035      N3042   1.426       .  S
C3036      C3037   1.392       .  A
C3036      H3041   1.085       .  S
C3037      C3038   1.407       .  A
C3038      N3039   1.429       .  S
N3039      O3043   1.262       .  A
N3039      O3044   1.262       .  A
N3042      O3046   1.261       .  A
N3042      O3045   1.261       .  A
C3047      C3052   1.412   1_554  A
C3047      H3054   1.083       .  S
C3048      C3049   1.410       .  A
C3049      C3050   1.404       .  A
C3049      N3056   1.432       .  S
C3050      H3055   1.081       .  S
C3051      C3052   1.409   1_554  A
C3052      N3053   1.429       .  S
N3053      O3057   1.262       .  A
N3053      O3058   1.262       .  A
N3056      O3060   1.262       .  A
N3056      O3059   1.262       .  A
C3061      C3062   1.402       .  A
C3061      C3066   1.402       .  A
C3061      H3068   1.084       .  S
C3062      C3063   1.414       .  A
C3063      C3064   1.398       .  A
C3064      C3065   1.400       .  A
C3064      H3069   1.084       .  S
C3065      C3066   1.412       .  A
C3066      N3067   1.430       .  S
N3067      O3071   1.261       .  A
N3067      O3072   1.262       .  A
N3070      O3074   1.262       .  A
N3070      O3073   1.262       .  A
C3075      C3076   1.408       .  A
C3075      C3080   1.406       .  A
C3075      H3082   1.083       .  S
C3076      C3077   1.424       .  A
C3077      C3078   1.399       .  A
C3077      N3084   1.432       .  S
C3078      C3079   1.395       .  A
C3078      H3083   1.084       .  S
C3079      C3080   1.408       .  A
C3080      N3081   1.429       .  S
N3081      O3085   1.262       .  A
N3081      O3086   1.262       .  A
N3084      O3088   1.262       .  A
N3084      O3087   1.262       .  A
C3089      C3090   1.404       .  A
C3089      C3094   1.402       .  A
C3089      H3096   1.084       .  S
C3090      C3091   1.412       .  A
C3091      C3092   1.401       .  A
C3091      N3098   1.428       .  S
C3092      C3093   1.400       .  A
C3092      H3097   1.083       .  S
C3093      C3094   1.409       .  A
C3094      N3095   1.429       .  S
N3095      O3099   1.262       .  A
N3095      O3100   1.262       .  A
N3098      O3102   1.261       .  A
C3103      C3104   1.408       .  A
C3103      C3108   1.400       .  A
C3103      H3110   1.084       .  S
C3104      C3105   1.413       .  A
C3105      C3106   1.404       .  A
C3105      N3112   1.433       .  S
C3106      C3107   1.408       .  A
C3106      H3111   1.084       .  S
C3107      C3108   1.411       .  A
C3108      N3109   1.433       .  S
N3109      O3113   1.263       .  A
N3109      O3114   1.262       .  A
N3112      O3116   1.262       .  A
N3112      O3115   1.262       .  A
C3117      C3118   1.400       .  A
C3117      C3122   1.404       .  A
C3117      H3124   1.084       .  S
C3118      C3119   1.409       .  A
C3119      C3120   1.395       .  A
C3120      C3121   1.398       .  A
C3120      H3125   1.085       .  S
C3121      C3122   1.410       .  A
C3122      N3123   1.434       .  S
N3123      O3127   1.262       .  A
N3123      O3128   1.262       .  A
N3126      O3130   1.262       .  A
N3126      O3129   1.262       .  A
C3131      C3132   1.407       .  A
C3131      C3136   1.407   1_545  A
C3131      H3138   1.083       .  S
C3132      C3133   1.418       .  A
C3133      C3134   1.397       .  A
C3133      N3140   1.431       .  S
C3134      C3135   1.396   1_545  A
C3134      H3139   1.085   1_545  S
C3135      C3136   1.407       .  A
C3136      N3137   1.429       .  S
N3137      O3141   1.262       .  A
N3137      O3142   1.262       .  A
N3140      O3144   1.262       .  A
N3140      O3143   1.262       .  A
C3145      C3146   1.403       .  A
C3145      C3150   1.395       .  A
C3145      H3152   1.084       .  S
C3146      C3147   1.410       .  A
C3147      C3148   1.406       .  A
C3147      N3154   1.429       .  S
C3148      C3149   1.407       .  A
C3148      H3153   1.083       .  S
C3149      C3150   1.412       .  A
C3150      N3151   1.432       .  S
N3151      O3155   1.262       .  A
N3151      O3156   1.262       .  A
N3154      O3158   1.262       .  A
N3154      O3157   1.262       .  A
C3159      C3160   1.401       .  A
C3159      C3164   1.392       .  A
C3159      H3166   1.080       .  S
C3160      C3161   1.413       .  A
C3161      C3162   1.403       .  A
C3161      N3168   1.432       .  S
C3162      C3163   1.401       .  A
C3162      H3167   1.082       .  S
C3163      C3164   1.408       .  A
C3164      N3165   1.429       .  S
N3165      O3169   1.262       .  A
N3165      O3170   1.261       .  A
N3168      O3172   1.262       .  A
N3168      O3171   1.262       .  A
C3173      C3174   1.406       .  A
C3173      C3178   1.400       .  A
C3174      C3175   1.417       .  A
C3175      C3176   1.396       .  A
C3175      N3182   1.430       .  S
C3176      C3177   1.397       .  A
C3176      H3181   1.082       .  S
C3177      C3178   1.407       .  A
C3178      N3179   1.430       .  S
N3179      O3183   1.262       .  A
N3179      O3184   1.260       .  A
N3182      O3186   1.262       .  A
N3182      O3185   1.262       .  A
C3187      C3188   1.409       .  A
C3187      C3192   1.401       .  A
C3187      H3194   1.083       .  S
C3188      C3189   1.417       .  A
C3189      C3190   1.388       .  A
C3189      N3196   1.434       .  S
C3190      C3191   1.398       .  A
C3190      H3195   1.085       .  S
C3191      C3192   1.405       .  A
C3192      N3193   1.429       .  S
N3193      O3197   1.262       .  A
N3193      O3198   1.262       .  A
N3196      O3200   1.262       .  A
N3196      O3199   1.263       .  A
C3201      C3202   1.399       .  A
C3201      C3206   1.401       .  A
C3201      H3208   1.084       .  S
C3202      C3203   1.408       .  A
C3203      C3204   1.398       .  A
C3203      N3210   1.430       .  S
C3204      C3205   1.405       .  A
C3204      H3209   1.084       .  S
C3205      C3206   1.420       .  A
C3206      N3207   1.435       .  S
N3207      O3211   1.262       .  A
N3207      O3212   1.262       .  A
N3210      O3214   1.262       .  A
N3210      O3213   1.262       .  A
C3215      C3220   1.405       .  A
C3215      H3222   1.084   1_556  S
C3216      C3217   1.415       .  A
C3217      N3224   1.431       .  S
C3218      C3219   1.402       .  A
C3218      H3223   1.084       .  S
C3219      C3220   1.419       .  A
C3220      N3221   1.435       .  S
N3221      O3225   1.263       .  A
N3221      O3226   1.262       .  A
N3224      O3228   1.262       .  A
N3224      O3227   1.262       .  A
C3229      C3230   1.401       .  A
C3229      C3234   1.404       .  A
C3229      H3236   1.084       .  S
C3230      C3231   1.407       .  A
C3231      C3232   1.383       .  A
C3231      N3238   1.431       .  S
C3232      C3233   1.399       .  A
C3232      H3237   1.084       .  S
C3233      C3234   1.414       .  A
C3234      N3235   1.429       .  S
N3235      O3239   1.262       .  A
N3235      O3240   1.262       .  A
N3238      O3242   1.262       .  A
N3238      O3241   1.260       .  A
C3243      C3244   1.410       .  A
C3243      C3248   1.410       .  A
C3243      H3250   1.083       .  S
C3244      C3245   1.414       .  A
C3245      C3246   1.387       .  A
C3245      N3252   1.431       .  S
C3246      C3247   1.398   1_545  A
C3246      H3251   1.084   1_545  S
C3247      C3248   1.409   1_565  A
C3248      N3249   1.428       .  S
N3249      O3253   1.262   1_545  A
N3249      O3254   1.262       .  A
N3252      O3256   1.262       .  A
N3252      O3255   1.262       .  A
C3257      C3258   1.408       .  A
C3257      C3262   1.405       .  A
C3257      H3264   1.084       .  S
C3258      C3259   1.413       .  A
C3259      C3260   1.406       .  A
C3259      N3266   1.429       .  S
C3260      C3261   1.407       .  A
C3260      H3265   1.084       .  S
C3261      C3262   1.414       .  A
C3262      N3263   1.430       .  S
N3263      O3267   1.262       .  A
N3263      O3268   1.262       .  A
N3266      O3269   1.261       .  A
C3271      C3272   1.397       .  A
C3271      C3276   1.392       .  A
C3271      H3278   1.085       .  S
C3272      C3273   1.411       .  A
C3273      C3274   1.404       .  A
C3273      N3280   1.430       .  S
C3274      C3275   1.400       .  A
C3274      H3279   1.084       .  S
C3275      C3276   1.412       .  A
C3276      N3277   1.429       .  S
N3277      O3281   1.262       .  A
N3277      O3282   1.261       .  A
N3280      O3284   1.262       .  A
N3280      O3283   1.262       .  A
C3285      C3286   1.408       .  A
C3285      C3290   1.407       .  A
C3285      H3292   1.084       .  S
C3286      C3287   1.414       .  A
C3287      C3288   1.399       .  A
C3287      N3294   1.437       .  S
C3288      C3289   1.402       .  A
C3288      H3293   1.084       .  S
C3289      C3290   1.408       .  A
C3290      N3291   1.429       .  S
N3291      O3295   1.261       .  A
N3291      O3296   1.262       .  A
N3294      O3298   1.262       .  A
N3294      O3297   1.263       .  A
C3299      C3300   1.393       .  A
C3299      C3304   1.398       .  A
C3299      H3306   1.084       .  S
C3300      C3301   1.406       .  A
C3301      C3302   1.402       .  A
C3301      N3308   1.430       .  S
C3302      C3303   1.407       .  A
C3302      H3307   1.083       .  S
C3303      C3304   1.423       .  A
C3304      N3305   1.431       .  S
N3305      O3309   1.262       .  A
N3305      O3310   1.262       .  A
N3308      O3312   1.262       .  A
N3308      O3311   1.262       .  A
C3313      C3314   1.406       .  A
C3313      C3318   1.398       .  A
C3313      H3320   1.084       .  S
C3314      C3315   1.422       .  A
C3315      C3316   1.398       .  A
C3315      N3322   1.436       .  S
C3316      C3317   1.403       .  A
C3316      H3321   1.084       .  S
C3317      C3318   1.410       .  A
C3318      N3319   1.428       .  S
N3319      O3323   1.261   1_655  A
N3319      O3324   1.261       .  A
N3322      O3326   1.262       .  A
N3322      O3325   1.261       .  A
C3327      C3328   1.402       .  A
C3327      C3332   1.408       .  A
C3327      H3334   1.084       .  S
C3328      C3329   1.403       .  A
C3329      C3330   1.392       .  A
C3329      N3336   1.428       .  S
C3330      C3331   1.405       .  A
C3330      H3335   1.084       .  S
C3331      C3332   1.418       .  A
C3332      N3333   1.429       .  S
N3333      O3337   1.262       .  A
N3333      O3338   1.262       .  A
N3336      O3340   1.261   1_455  A
N3336      O3339   1.262       .  A
C3341      C3346   1.403   1_554  A
C3343      C3344   1.395       .  A
C3344      C3345   1.398       .  A
C3344      H3349   1.085       .  S
C3345      C3346   1.407   1_655  A
C3346      N3347   1.430       .  S
N3347      O3351   1.262       .  A
N3347      O3352   1.262       .  A
N3350      O3353   1.262       .  A
C3355      C3356   1.397       .  A
C3355      C3360   1.391       .  A
C3355      H3362   1.085       .  S
C3356      C3357   1.406       .  A
C3357      C3358   1.404       .  A
C3357      N3364   1.428       .  S
C3358      C3359   1.408       .  A
C3358      H3363   1.083       .  S
C3359      C3360   1.416       .  A
C3360      N3361   1.433   1_455  S
N3361      O3365   1.262       .  A
N3361      O3366   1.262   1_655  A
N3364      O3368   1.262       .  A
C3369      C3370   1.399   1_655  A
C3369      C3374   1.393       .  A
C3369      H3376   1.085       .  S
C3370      C3371   1.410       .  A
C3371      C3372   1.407   1_455  A
C3371      N3378   1.428       .  S
C3372      C3373   1.407       .  A
C3372      H3377   1.084   1_655  S
C3373      C3374   1.413       .  A
C3374      N3375   1.430       .  S
N3375      O3379   1.262       .  A
N3375      O3380   1.262       .  A
N3378      O3382   1.261       .  A
N3378      O3381   1.262       .  A
C3383      C3384   1.402       .  A
C3383      C3388   1.388       .  A
C3383      H3390   1.084       .  S
C3384      C3385   1.413       .  A
C3385      C3386   1.416       .  A
C3385      N3392   1.430       .  S
C3386      C3387   1.412       .  A
C3386      H3391   1.083       .  S
C3387      C3388   1.417       .  A
C3388      N3389   1.431       .  S
N3389      O3393   1.262   1_455  A
N3389      O3394   1.262   1_455  A
N3392      O3396   1.262       .  A
N3392      O3395   1.262       .  A
C3397      C3398   1.408       .  A
C3397      C3402   1.397       .  A
C3397      H3404   1.084       .  S
C3398      C3399   1.411       .  A
C3399      C3400   1.406       .  A
C3399      N3406   1.429       .  S
C3400      C3401   1.405       .  A
C3401      C3402   1.406       .  A
C3402      N3403   1.431       .  S
N3403      O3407   1.262       .  A
N3403      O3408   1.261       .  A
C3411      C3412   1.405       .  A
C3411      C3416   1.402       .  A
C3411      H3418   1.084       .  S
C3412      C3413   1.410       .  A
C3413      C3414   1.399       .  A
C3413      N3420   1.429       .  S
C3414      C3415   1.403       .  A
C3414      H3419   1.084       .  S
C3415      C3416   1.407       .  A
C3416      N3417   1.429       .  S
N3417      O3421   1.261       .  A
N3417      O3422   1.261       .  A
N3420      O3424   1.262       .  A
N3420      O3423   1.261       .  A
C3425      C3426   1.401       .  A
C3425      C3430   1.398       .  A
C3425      H3432   1.083       .  S
C3426      C3427   1.406       .  A
C3427      C3428   1.401       .  A
C3427      N3434   1.432       .  S
C3428      C3429   1.401       .  A
C3428      H3433   1.082       .  S
C3429      C3430   1.405       .  A
C3430      N3431   1.429       .  S
N3431      O3435   1.261       .  A
N3431      O3436   1.262       .  A
N3434      O3438   1.262       .  A
N3434      O3437   1.262       .  A
C3439      C3440   1.406       .  A
C3439      C3444   1.399       .  A
C3439      H3446   1.084       .  S
C3440      C3441   1.416       .  A
C3441      C3442   1.406       .  A
C3441      N3448   1.432       .  S
C3442      C3443   1.408       .  A
C3442      H3447   1.084       .  S
C3443      C3444   1.415       .  A
C3444      N3445   1.429       .  S
N3445      O3449   1.261       .  A
N3445      O3450   1.262       .  A
N3448      O3452   1.262       .  A
N3448      O3451   1.262       .  A
C3453      C3454   1.392       .  A
C3453      C3458   1.398       .  A
C3453      H3460   1.085       .  S
C3454      C3455   1.406       .  A
C3455      C3456   1.402       .  A
C3455      N3462   1.430       .  S
C3456      C3457   1.406       .  A
C3456      H3461   1.083       .  S
C3457      C3458   1.426       .  A
C3458      N3459   1.433       .  S
N3459      O3463   1.262       .  A
N3459      O3464   1.262       .  A
N3462      O3466   1.262       .  A
N3462      O3465   1.262       .  A
C3467      C3468   1.404       .  A
C3467      C3472   1.405       .  A
C3467      H3474   1.084       .  S
C3468      C3469   1.405       .  A
C3469      C3470   1.391       .  A
C3469      N3476   1.427       .  S
C3470      C3471   1.396       .  A
C3470      H3475   1.085       .  S
C3471      C3472   1.408       .  A
C3472      N3473   1.431       .  S
N3473      O3477   1.262       .  A
N3473      O3478   1.262       .  A
N3476      O3480   1.261       .  A
N3476      O3479   1.263       .  A
C3481      C3482   1.407       .  A
C3481      C3486   1.397       .  A
C3481      H3488   1.084       .  S
C3482      C3483   1.415       .  A
C3483      C3484   1.406       .  A
C3483      N3490   1.429       .  S
C3484      C3485   1.406       .  A
C3484      H3489   1.084       .  S
C3485      C3486   1.410       .  A
C3486      N3487   1.429       .  S
N3487      O3491   1.261       .  A
N3487      O3492   1.262       .  A
N3490      O3494   1.262       .  A
N3490      O3493   1.262       .  A
C3495      C3496   1.401       .  A
C3495      C3500   1.405       .  A
C3495      H3502   1.084       .  S
C3496      C3497   1.403       .  A
C3497      C3498   1.393       .  A
C3497      N3504   1.430       .  S
C3498      C3499   1.406       .  A
C3498      H3503   1.084       .  S
C3499      C3500   1.416       .  A
C3500      N3501   1.428       .  S
N3501      O3505   1.262       .  A
N3501      O3506   1.262       .  A
N3504      O3508   1.262       .  A
N3504      O3507   1.262       .  A
C3509      C3510   1.406       .  A
C3509      C3514   1.403       .  A
C3509      H3516   1.084       .  S
C3510      C3511   1.414       .  A
C3511      C3512   1.401       .  A
C3511      N3518   1.427       .  S
C3512      C3513   1.405       .  A
C3512      H3517   1.084       .  S
C3513      C3514   1.416       .  A
C3514      N3515   1.429       .  S
N3515      O3519   1.262       .  A
N3515      O3520   1.262       .  A
N3518      O3521   1.262       .  A
C3523      C3524   1.401       .  A
C3523      C3528   1.399       .  A
C3523      H3530   1.084       .  S
C3524      C3525   1.415       .  A
C3525      C3526   1.399       .  A
C3525      N3532   1.435       .  S
C3526      C3527   1.399       .  A
C3526      H3531   1.083       .  S
C3527      C3528   1.412       .  A
C3528      N3529   1.429   1_556  S
N3529      O3533   1.262       .  A
N3532      O3536   1.262       .  A
N3532      O3535   1.263       .  A
C3537      C3538   1.397       .  A
C3537      C3542   1.400       .  A
C3537      H3544   1.084       .  S
C3538      C3539   1.407       .  A
C3539      C3540   1.398       .  A
C3539      N3546   1.430       .  S
C3540      C3541   1.407       .  A
C3540      H3545   1.084       .  S
C3541      C3542   1.423       .  A
C3542      N3543   1.433       .  S
N3543      O3548   1.262       .  A
N3546      O3550   1.262       .  A
N3546      O3549   1.262       .  A
C3551      C3552   1.396       .  A
C3551      C3556   1.394       .  A
C3551      H3558   1.085       .  S
C3552      C3553   1.406       .  A
C3553      C3554   1.400       .  A
C3553      N3560   1.435       .  S
C3554      C3555   1.408       .  A
C3554      H3559   1.083       .  S
C3555      C3556   1.416       .  A
C3556      N3557   1.429       .  S
N3557      O3561   1.262       .  A
N3557      O3562   1.262       .  A
N3560      O3564   1.262       .  A
N3560      O3563   1.262       .  A
C3565      C3566   1.403       .  A
C3565      C3570   1.405       .  A
C3565      H3572   1.084       .  S
C3566      C3567   1.412       .  A
C3567      C3568   1.387       .  A
C3567      N3574   1.428       .  S
C3568      C3569   1.399       .  A
C3568      H3573   1.084       .  S
C3569      C3570   1.418       .  A
C3570      N3571   1.429       .  S
N3571      O3575   1.262       .  A
N3571      O3576   1.262       .  A
N3574      O3578   1.262       .  A
N3574      O3577   1.261       .  A
C3579      C3580   1.401       .  A
C3579      C3584   1.398       .  A
C3579      H3586   1.080       .  S
C3580      C3581   1.413       .  A
C3581      C3582   1.400       .  A
C3581      N3588   1.429       .  S
C3582      C3583   1.406       .  A
C3582      H3587   1.084       .  S
C3583      C3584   1.416       .  A
C3584      N3585   1.430       .  S
N3585      O3589   1.262       .  A
N3585      O3590   1.262       .  A
N3588      O3592   1.262       .  A
C3593      C3594   1.408       .  A
C3593      C3598   1.405       .  A
C3593      H3600   1.084       .  S
C3594      C3595   1.412       .  A
C3595      C3596   1.398       .  A
C3595      N3602   1.429       .  S
C3596      C3597   1.397       .  A
C3596      H3601   1.079       .  S
C3597      C3598   1.406       .  A
C3598      N3599   1.428       .  S
N3599      O3603   1.262       .  A
N3599      O3604   1.262       .  A
N3602      O3606   1.262       .  A
N3602      O3605   1.262       .  A
C3607      C3608   1.403       .  A
C3607      C3612   1.398       .  A
C3607      H3614   1.084       .  S
C3608      C3609   1.406       .  A
C3609      C3610   1.400       .  A
C3609      N3616   1.428       .  S
C3610      C3611   1.407       .  A
C3610      H3615   1.083       .  S
C3611      C3612   1.413       .  A
C3612      N3613   1.430       .  S
N3613      O3617   1.261       .  A
N3613      O3618   1.262       .  A
N3616      O3620   1.262       .  A
N3616      O3619   1.262       .  A
C3621      C3622   1.403       .  A
C3621      C3626   1.400       .  A
C3621      H3628   1.083       .  S
C3623      C3624   1.395       .  A
C3623      N3630   1.431       .  S
C3624      C3625   1.399       .  A
C3624      H3629   1.084       .  S
C3626      N3627   1.430       .  S
N3627      O3631   1.262       .  A
N3627      O3632   1.261       .  A
N3630      O3634   1.262       .  A
N3630      O3633   1.262       .  A
C3635      C3636   1.410       .  A
C3635      C3640   1.404       .  A
C3635      H3642   1.084       .  S
C3636      C3637   1.418       .  A
C3637      C3638   1.393       .  A
C3637      N3644   1.433       .  S
C3638      C3639   1.403       .  A
C3638      H3643   1.084       .  S
C3639      C3640   1.411       .  A
C3640      N3641   1.429       .  S
N3641      O3645   1.262       .  A
N3641      O3646   1.262       .  A
N3644      O3648   1.262       .  A
N3644      O3647   1.262       .  A
C3649      C3650   1.405       .  A
C3649      C3654   1.393       .  A
C3649      H3656   1.084       .  S
C3650      C3651   1.414       .  A
C3651      C3652   1.405       .  A
C3651      N3658   1.431       .  S
C3652      C3653   1.404       .  A
C3652      H3657   1.083       .  S
C3653      C3654   1.406       .  A
C3654      N3655   1.429       .  S
N3655      O3659   1.261       .  A
N3655      O3660   1.262       .  A
N3658      O3662   1.262       .  A
N3658      O3661   1.262       .  A
C3663      C3664   1.401       .  A
C3663      C3668   1.402       .  A
C3663      H3670   1.084       .  S
C3664      C3665   1.413       .  A
C3665      C3666   1.395       .  A
C3665      N3672   1.432       .  S
C3666      C3667   1.398       .  A
C3666      H3671   1.085       .  S
C3667      C3668   1.414       .  A
C3668      N3669   1.433       .  S
N3669      O3673   1.262       .  A
N3669      O3674   1.262       .  A
N3672      O3676   1.262       .  A
N3672      O3675   1.262       .  A
C3677      C3678   1.402       .  A
C3677      C3682   1.395       .  A
C3677      H3684   1.083       .  S
C3678      C3679   1.415       .  A
C3679      C3680   1.405       .  A
C3679      N3686   1.433       .  S
C3680      C3681   1.403       .  A
C3680      H3685   1.084       .  S
C3681      C3682   1.406       .  A
C3682      N3683   1.428       .  S
N3683      O3687   1.261       .  A
N3683      O3688   1.262       .  A
N3686      O3690   1.262       .  A
N3686      O3689   1.262       .  A
C3691      C3692   1.400       .  A
C3691      C3696   1.400       .  A
C3691      H3698   1.085       .  S
C3692      C3693   1.412       .  A
C3693      C3694   1.402       .  A
C3693      N3700   1.431       .  S
C3694      C3695   1.403       .  A
C3694      H3699   1.084       .  S
C3695      C3696   1.411       .  A
C3696      N3697   1.426       .  S
N3697      O3701   1.261       .  A
N3697      O3702   1.261       .  A
N3700      O3704   1.262       .  A
N3700      O3703   1.262       .  A
C3705      C3706   1.409       .  A
C3705      C3710   1.409       .  A
C3705      H3712   1.083       .  S
C3706      C3707   1.417       .  A
C3707      C3708   1.387       .  A
C3707      N3714   1.431       .  S
C3708      C3709   1.398       .  A
C3708      H3713   1.084       .  S
C3709      C3710   1.408       .  A
C3710      N3711   1.428       .  S
N3711      O3715   1.262       .  A
N3711      O3716   1.262       .  A
N3714      O3718   1.262       .  A
N3714      O3717   1.262       .  A
C3719      C3720   1.406       .  A
C3719      C3724   1.399       .  A
C3719      H3726   1.084       .  S
C3720      C3721   1.413       .  A
C3721      C3722   1.401       .  A
C3721      N3728   1.429       .  S
C3722      C3723   1.406       .  A
C3722      H3727   1.082       .  S
C3723      C3724   1.415       .  A
N3725      O3729   1.262       .  A
N3725      O3730   1.262       .  A
N3728      O3732   1.262       .  A
N3728      O3731   1.262       .  A
C3733      C3734   1.401       .  A
C3733      C3738   1.400       .  A
C3733      H3740   1.085       .  S
C3734      C3735   1.408       .  A
C3735      C3736   1.403       .  A
C3735      N3742   1.429       .  S
C3736      C3737   1.402       .  A
C3736      H3741   1.084       .  S
C3737      C3738   1.407       .  A
C3738      N3739   1.428       .  S
N3739      O3743   1.262       .  A
N3739      O3744   1.260       .  A
N3742      O3746   1.261       .  A
N3742      O3745   1.261       .  A
C3747      C3748   1.400       .  A
C3747      C3752   1.397       .  A
C3747      H3754   1.084       .  S
C3748      C3749   1.410       .  A
C3749      C3750   1.401       .  A
C3749      N3756   1.430       .  S
C3750      C3751   1.402       .  A
C3750      H3755   1.083       .  S
C3751      C3752   1.409       .  A
C3752      N3753   1.428       .  S
N3753      O3757   1.262       .  A
N3753      O3758   1.262       .  A
N3756      O3760   1.262       .  A
N3756      O3759   1.262       .  A
C3761      C3762   1.406       .  A
C3761      C3766   1.393       .  A
C3761      H3768   1.084       .  S
C3762      C3763   1.419       .  A
C3763      C3764   1.401       .  A
C3764      C3765   1.397       .  A
C3764      H3769   1.084       .  S
C3765      C3766   1.402       .  A
C3766      N3767   1.429       .  S
N3767      O3771   1.261       .  A
N3767      O3772   1.262       .  A
N3770      O3774   1.262       .  A
N3770      O3773   1.262       .  A
C3775      C3776   1.400       .  A
C3775      C3780   1.387       .  A
C3775      H3782   1.084       .  S
C3776      C3777   1.416       .  A
C3777      C3778   1.401       .  A
C3777      N3784   1.429       .  S
C3778      C3779   1.400       .  A
C3778      H3783   1.084       .  S
C3779      C3780   1.410       .  A
C3780      N3781   1.433       .  S
N3781      O3785   1.262       .  A
N3781      O3786   1.262       .  A
N3784      O3788   1.262       .  A
N3784      O3787   1.262       .  A
C3789      C3790   1.394       .  A
C3789      C3794   1.397       .  A
C3789      H3796   1.083       .  S
C3790      C3791   1.406       .  A
C3791      C3792   1.405       .  A
C3791      N3798   1.428       .  S
C3792      C3793   1.409       .  A
C3792      H3797   1.083       .  S
C3793      C3794   1.423       .  A
C3794      N3795   1.430       .  S
N3795      O3799   1.262       .  A
N3795      O3800   1.262       .  A
N3798      O3802   1.262       .  A
N3798      O3801   1.262       .  A
C3803      C3804   1.399       .  A
C3803      C3808   1.392       .  A
C3803      H3810   1.084       .  S
C3804      C3805   1.412       .  A
C3805      C3806   1.403       .  A
C3805      N3812   1.429       .  S
C3806      C3807   1.403       .  A
C3806      H3811   1.084       .  S
C3807      C3808   1.412       .  A
C3808      N3809   1.429       .  S
N3809      O3813   1.261       .  A
N3809      O3814   1.262       .  A
N3812      O3816   1.262       .  A
N3812      O3815   1.262       .  A
C3817      C3818   1.402       .  A
C3817      H3824   1.084       .  S
C3818      C3819   1.415       .  A
C3819      C3820   1.405       .  A
C3819      N3826   1.430       .  S
C3820      H3825   1.084       .  S
C3821      C3822   1.413       .  A
C3822      N3823   1.430       .  S
N3823      O3827   1.262       .  A
N3823      O3828   1.262       .  A
N3826      O3830   1.262       .  A
N3826      O3829   1.262       .  A
C3831      C3832   1.403       .  A
C3831      C3836   1.403       .  A
C3831      H3838   1.084       .  S
C3832      C3833   1.406       .  A
C3833      C3834   1.400       .  A
C3833      N3840   1.429       .  S
C3834      C3835   1.403       .  A
C3834      H3839   1.084       .  S
C3835      C3836   1.409       .  A
C3836      N3837   1.430       .  S
N3837      O3841   1.262       .  A
N3837      O3842   1.262       .  A
N3840      O3844   1.262       .  A
N3840      O3843   1.262       .  A
C3845      C3846   1.406       .  A
C3845      C3850   1.405       .  A
C3845      H3852   1.084       .  S
C3846      C3847   1.408       .  A
C3847      C3848   1.397       .  A
C3847      N3854   1.431       .  S
C3848      C3849   1.405       .  A
C3848      H3853   1.084       .  S
C3849      C3850   1.410       .  A
C3850      N3851   1.429       .  S
N3851      O3856   1.262       .  A
N3854      O3858   1.262       .  A
N3854      O3857   1.262       .  A
C3859      C3860   1.403       .  A
C3859      C3864   1.404       .  A
C3859      H3866   1.080       .  S
C3860      C3861   1.407       .  A
C3861      C3862   1.399       .  A
C3861      N3868   1.428       .  S
C3862      C3863   1.400       .  A
C3862      H3867   1.084       .  S
C3863      C3864   1.407       .  A
C3864      N3865   1.429       .  S
N3865      O3869   1.262       .  A
N3865      O3870   1.262       .  A
N3868      O3872   1.261       .  A
N3868      O3871   1.260       .  A
C3873      C3874   1.407       .  A
C3873      C3878   1.403       .  A
C3873      H3880   1.084       .  S
C3874      C3875   1.414       .  A
C3875      C3876   1.397       .  A
C3875      N3882   1.430       .  S
C3876      C3877   1.404       .  A
C3876      H3881   1.084       .  S
C3877      C3878   1.413       .  A
C3878      N3879   1.431       .  S
N3879      O3883   1.262       .  A
N3879      O3884   1.262       .  A
N3882      O3886   1.262       .  A
N3882      O3885   1.262       .  A
C3887      C3888   1.404   1_556  A
C3887      C3892   1.403       .  A
C3887      H3894   1.084       .  S
C3889      C3890   1.395       .  A
C3889      N3896   1.429       .  S
C3890      C3891   1.395       .  A
C3890      H3895   1.084       .  S
C3892      N3893   1.428       .  S
N3893      O3897   1.262       .  A
N3893      O3898   1.262       .  A
N3896      O3900   1.262       .  A
N3896      O3899   1.261       .  A
C3901      C3902   1.402       .  A
C3901      C3906   1.403       .  A
C3901      H3908   1.084       .  S
C3902      C3903   1.412       .  A
C3903      C3904   1.401       .  A
C3904      C3905   1.401       .  A
C3904      H3909   1.084       .  S
C3905      C3906   1.412       .  A
C3906      N3907   1.429       .  S
N3907      O3911   1.262       .  A
N3907      O3912   1.262       .  A
N3910      O3914   1.262       .  A
N3910      O3913   1.262       .  A
C3915      C3916   1.405       .  A
C3915      C3920   1.404       .  A
C3915      H3922   1.084       .  S
C3916      C3917   1.406       .  A
C3917      C3918   1.397       .  A
C3917      N3924   1.427       .  S
C3918      C3919   1.396       .  A
C3918      H3923   1.084       .  S
C3919      C3920   1.407       .  A
C3920      N3921   1.429       .  S
N3921      O3925   1.261       .  A
N3921      O3926   1.262       .  A
N3924      O3928   1.262       .  A
N3924      O3927   1.262       .  A
C3929      C3930   1.408       .  A
C3929      C3934   1.402       .  A
C3929      H3936   1.084       .  S
C3930      C3931   1.416       .  A
C3931      C3932   1.398       .  A
C3931      N3938   1.432       .  S
C3932      C3933   1.402       .  A
C3932      H3937   1.084       .  S
C3933      C3934   1.410       .  A
C3934      N3935   1.429   1_655  S
N3935      O3939   1.261       .  A
N3935      O3940   1.262       .  A
N3938      O3942   1.262       .  A
N3938      O3941   1.262       .  A
C3943      C3944   1.402       .  A
C3943      C3948   1.394       .  A
C3943      H3950   1.084       .  S
C3944      C3945   1.413       .  A
C3945      C3946   1.404       .  A
C3945      N3952   1.428       .  S
C3946      C3947   1.403       .  A
C3946      H3951   1.084       .  S
C3947      C3948   1.413       .  A
C3948      N3949   1.432       .  S
N3949      O3953   1.262       .  A
N3949      O3954   1.261       .  A
N3952      O3956   1.262       .  A
N3952      O3955   1.262       .  A
C3957      C3958   1.403       .  A
C3957      C3962   1.407       .  A
C3957      H3964   1.084       .  S
C3958      C3959   1.410       .  A
C3959      C3960   1.392       .  A
C3959      N3966   1.435       .  S
C3960      C3961   1.402       .  A
C3960      H3965   1.084       .  S
C3961      C3962   1.416       .  A
C3962      N3963   1.429       .  S
N3963      O3967   1.262       .  A
N3963      O3968   1.262       .  A
N3966      O3970   1.262       .  A
N3966      O3969   1.261       .  A
C3971      C3972   1.400       .  A
C3971      C3976   1.396       .  A
C3971      H3978   1.084       .  S
C3972      C3973   1.407       .  A
C3973      C3974   1.403       .  A
C3973      N3980   1.434       .  S
C3974      C3975   1.405       .  A
C3974      H3979   1.084       .  S
C3975      C3976   1.411       .  A
C3976      N3977   1.431       .  S
N3977      O3981   1.261       .  A
N3977      O3982   1.262       .  A
N3980      O3984   1.262       .  A
N3980      O3983   1.263       .  A
C3985      C3986   1.402       .  A
C3985      C3990   1.400       .  A
C3985      H3992   1.084       .  S
C3986      C3987   1.411       .  A
C3987      C3988   1.402       .  A
C3987      N3994   1.430       .  S
C3988      C3989   1.404       .  A
C3988      H3993   1.084       .  S
C3989      C3990   1.411       .  A
C3990      N3991   1.431       .  S
N3991      O3995   1.262       .  A
N3991      O3996   1.262       .  A
N3994      O3998   1.262       .  A
N3994      O3997   1.262       .  A
C3999      C4000   1.405       .  A
C3999      C4004   1.403       .  A
C3999      H4006   1.084       .  S
C4000      C4001   1.417       .  A
C4001      C4002   1.397       .  A
C4001      N4008   1.431       .  S
C4002      C4003   1.404       .  A
C4002      H4007   1.084       .  S
C4003      C4004   1.415       .  A
C4004      N4005   1.429       .  S
N4005      O4009   1.262       .  A
N4005      O4010   1.262       .  A
N4008      O4012   1.262       .  A
N4008      O4011   1.262       .  A
C4013      C4014   1.406       .  A
C4013      C4018   1.401       .  A
C4013      H4020   1.084       .  S
C4014      C4015   1.410       .  A
C4015      C4016   1.393       .  A
C4015      N4022   1.432       .  S
C4016      C4017   1.395       .  A
C4016      H4021   1.079       .  S
C4017      C4018   1.408       .  A
C4018      N4019   1.435       .  S
N4019      O4023   1.263       .  A
N4019      O4024   1.262       .  A
N4022      O4026   1.262       .  A
N4022      O4025   1.262       .  A
C4027      C4028   1.404       .  A
C4027      C4032   1.393       .  A
C4027      H4034   1.081       .  S
C4028      C4029   1.415       .  A
C4029      C4030   1.404       .  A
C4029      N4036   1.429       .  S
C4030      C4031   1.402       .  A
C4030      H4035   1.084       .  S
C4031      C4032   1.407       .  A
C4032      N4033   1.432       .  S
N4033      O4037   1.262       .  A
N4033      O4038   1.262       .  A
N4036      O4040   1.262       .  A
N4036      O4039   1.262       .  A
C4041      C4042   1.399       .  A
C4041      C4046   1.396       .  A
C4041      H4048   1.084       .  S
C4042      C4043   1.407       .  A
C4043      C4044   1.405       .  A
C4043      N4050   1.429       .  S
C4044      C4045   1.405       .  A
C4044      H4049   1.084       .  S
C4045      C4046   1.409       .  A
C4046      N4047   1.430       .  S
N4047      O4051   1.262       .  A
N4047      O4052   1.262       .  A
N4050      O4054   1.262       .  A
N4050      O4053   1.262       .  A
C4055      C4056   1.399       .  A
C4055      C4060   1.397       .  A
C4055      H4062   1.084       .  S
C4056      C4057   1.411       .  A
C4057      C4058   1.398       .  A
C4057      N4064   1.433       .  S
C4058      C4059   1.402       .  A
C4058      H4063   1.084       .  S
C4059      C4060   1.412       .  A
C4060      N4061   1.434       .  S
N4061      O4065   1.262       .  A
N4061      O4066   1.262       .  A
N4064      O4068   1.262       .  A
N4064      O4067   1.262       .  A
C4069      C4070   1.396       .  A
C4069      C4074   1.398       .  A
C4069      H4076   1.085       .  S
C4070      C4071   1.410       .  A
C4071      C4072   1.407       .  A
C4071      N4078   1.434       .  S
C4072      C4073   1.408       .  A
C4072      H4077   1.083       .  S
C4073      C4074   1.420       .  A
C4074      N4075   1.429       .  S
N4075      O4079   1.262       .  A
N4075      O4080   1.262       .  A
N4078      O4082   1.262       .  A
N4078      O4081   1.262       .  A
C4083      C4084   1.406       .  A
C4083      C4088   1.399       .  A
C4083      H4090   1.084       .  S
C4084      C4085   1.413       .  A
C4085      C4086   1.400       .  A
C4085      N4092   1.429       .  S
C4086      C4087   1.407       .  A
C4086      H4091   1.084       .  S
C4087      C4088   1.414       .  A
C4088      N4089   1.430       .  S
N4089      O4093   1.262       .  A
N4089      O4094   1.262       .  A
N4092      O4096   1.262       .  A
N4092      O4095   1.262       .  A
