geometry optimzed in LAMMPS
_audit_creation_date              2020-12-01 
_audit_creation_method            'lammps2cif' 
_symmetry_space_group_name_H-M    'P1' 
_symmetry_Int_Tables_number       1 
_symmetry_cell_setting            triclinic 
loop_ 
_symmetry_equiv_pos_as_xyz 
  x,y,z 
_cell_length_a                    43.53668796 
_cell_length_b                    43.482840041584865 
_cell_length_c                    36.44850598634675 
_cell_angle_alpha                 90.27412727950893 
_cell_angle_beta                  89.79173516652094 
_cell_angle_gamma                 120.44608179529746 
loop_ 
_atom_site_label 
_atom_site_type_symbol 
_atom_site_fract_x 
_atom_site_fract_y 
_atom_site_fract_z 
_atom_site_charge 
Fe1        Fe  0.49277131  0.74033498  0.22754669     1.65800
Fe2        Fe  0.53028357  0.71385653  0.28999634     1.73200
Fe3        Fe  0.51574395  0.78068746  0.31094359     1.54400
O4          O  0.53981290  0.82275765  0.27341519    -0.83100
O5          O  0.52395804  0.71864680  0.34512440    -0.81500
O6          O  0.51838108  0.79437169  0.21965764    -0.85700
O7          O  0.44891640  0.74150069  0.24674890    -0.80500
O8          O  0.56639560  0.79122119  0.32783588    -0.82300
O9          O  0.47851224  0.67224848  0.28732015    -0.85000
C10         C  0.44530345  0.76066334  0.27076448     0.95700
C11         C  0.53419921  0.82263449  0.23896087     1.03200
O12         O  0.51344710  0.74594253  0.27551591    -1.14000
O13         O  0.53896345  0.70138079  0.23707644    -0.76400
O14         O  0.53470940  0.73982478  0.20179180    -0.79900
O15         O  0.46766411  0.77613748  0.29644065    -0.80600
C16         C  0.54102773  0.71471956  0.20568701     0.94600
O17         O  0.46387644  0.68508232  0.23299318    -0.78600
O18         O  0.58107578  0.75708703  0.29418846    -0.83800
C19         C  0.49696049  0.71738579  0.35943798     0.97300
C20         C  0.58951624  0.78387073  0.31520643     1.03200
O21         O  0.48787348  0.73962656  0.34954071    -0.79400
C22         C  0.45668250  0.66498201  0.26099977     1.01500
Fe23       Fe  0.83557987  0.92111645  0.43897010     1.65800
Fe24       Fe  0.79859359  0.94796980  0.37563225     1.73200
Fe25       Fe  0.81200372  0.88044898  0.35565891     1.54400
O26         O  0.86091680  0.88634335  0.36723177    -0.83100
O27         O  0.74732703  0.90508610  0.37307654    -0.81500
O28         O  0.87724253  0.91552718  0.42038848    -0.85700
O29         O  0.80643727  0.86750399  0.44859288    -0.80500
O30         O  0.83850090  0.92040651  0.31578216    -0.82300
O31         O  0.79110473  0.96220470  0.42749433    -0.85000
C32         C  0.79180483  0.83921816  0.42925373     0.95700
C33         C  0.88237306  0.89965194  0.39385793     1.03200
O34         O  0.81499651  0.91567774  0.39080965    -1.14000
O35         O  0.85089479  0.98940831  0.37798397    -0.76400
O36         O  0.86717658  0.97559329  0.43107528    -0.79900
O37         O  0.78933737  0.83906661  0.39426715    -0.80600
C38         C  0.87329236  0.99638547  0.40387508     0.94600
O39         O  0.79658033  0.92641678  0.46568860    -0.78600
O40         O  0.80300895  0.94210920  0.32023950    -0.83800
C41         C  0.73808522  0.87711421  0.35371719     0.97300
C42         C  0.82831942  0.94129411  0.30444705     1.03200
O43         O  0.76069639  0.86911275  0.34102917    -0.79400
C44         C  0.79012253  0.95116424  0.45967979     1.01500
Fe45       Fe  0.25359010  0.75562728  0.22334565     1.65800
Fe46       Fe  0.28873087  0.82274423  0.28523129     1.73200
Fe47       Fe  0.21870104  0.74003564  0.30820010     1.54400
O48         O  0.17913092  0.71544274  0.26747744    -0.83100
O49         O  0.29937852  0.80979887  0.33511491    -0.81500
O50         O  0.20272035  0.74535979  0.21566456    -0.85700
O51         O  0.23451460  0.70376019  0.23912105    -0.80500
O52         O  0.20263271  0.77633798  0.31916569    -0.82300
O53         O  0.33004568  0.81508230  0.26645055    -0.85000
C54         C  0.23105357  0.68720379  0.26868098     0.95700
C55         C  0.17699228  0.72037909  0.23321882     1.03200
O56         O  0.25377930  0.77319649  0.27250909    -1.14000
O57         O  0.28701385  0.84614356  0.23658451    -0.76400
O58         O  0.27346727  0.80310820  0.19636039    -0.79900
O59         O  0.23159163  0.70077420  0.29973803    -0.80600
C60         C  0.28542910  0.83551308  0.20397795     0.94600
O61         O  0.30402643  0.76517286  0.23202161    -0.78600
O62         O  0.24826012  0.83102012  0.30593522    -0.83800
C63         C  0.28490617  0.78477570  0.35793421     0.97300
C64         C  0.21637195  0.81007236  0.31731847     1.03200
O65         O  0.25394254  0.75791991  0.35296398    -0.79400
C66         C  0.33052970  0.78926297  0.24980700     1.01500
Fe67       Fe  0.07663506  0.91606094  0.43979268     1.65800
Fe68       Fe  0.04996230  0.85017096  0.37783728     1.73200
Fe69       Fe  0.11493011  0.93215674  0.35536715     1.54400
O70         O  0.10812805  0.97493564  0.36643334    -0.83100
O71         O  0.09387576  0.84380344  0.37561918    -0.81500
O72         O  0.08213963  0.96342305  0.42118551    -0.85700
O73         O  0.13051365  0.94137048  0.44847743    -0.80500
O74         O  0.07295031  0.91571585  0.31686388    -0.82300
O75         O  0.03544842  0.82920434  0.43005405    -0.85000
C76         C  0.15811766  0.95627002  0.42813604     0.95700
C77         C  0.09639452  0.98386852  0.39387758     1.03200
O78         O  0.08149318  0.89994659  0.39191980    -1.14000
O79         O  0.00811471  0.86001511  0.37946030    -0.76400
O80         O  0.02207826  0.89220853  0.43174812    -0.79900
O81         O  0.15721924  0.95370951  0.39305601    -0.80600
C82         C  0.00133929  0.87647479  0.40454969     0.94600
O83         O  0.07152860  0.87213783  0.46719631    -0.78600
O84         O  0.05667813  0.86006474  0.32277878    -0.83800
C85         C  0.12123357  0.86286608  0.35541122     0.97300
C86         C  0.05195562  0.88341245  0.30818047     1.03200
O87         O  0.12768594  0.89270046  0.34152354    -0.79400
C88         C  0.04638635  0.84055109  0.46208694     1.01500
Fe89       Fe  0.24326057  0.50422797  0.22296789     1.65800
Fe90       Fe  0.17508420  0.46892440  0.28384056     1.73200
Fe91       Fe  0.25789077  0.48405955  0.30748039     1.54400
O92         O  0.28307834  0.46981765  0.26669182    -0.83100
O93         O  0.18619152  0.49063739  0.33518894    -0.81500
O94         O  0.25458932  0.46447917  0.21411775    -0.85700
O95         O  0.29494932  0.53766118  0.23982010    -0.80500
O96         O  0.22221415  0.43114356  0.31771533    -0.82300
O97         O  0.18241218  0.51817467  0.26708774    -0.85000
C98         C  0.31112465  0.54994569  0.26986527     0.95700
C99         C  0.27861260  0.46290003  0.23229104     1.03200
O100        O  0.22497026  0.48535289  0.27160289    -1.14000
O101        O  0.15281140  0.44507953  0.23391253    -0.76400
O102        O  0.19640177  0.47597300  0.19469438    -0.79900
O103        O  0.29638187  0.53678532  0.30033747    -0.80600
C104        C  0.16394513  0.45478763  0.20155456     0.94600
O105        O  0.23240133  0.54420079  0.23272615    -0.78600
O106        O  0.16744236  0.41989904  0.30274212    -0.83800
C107        C  0.21127371  0.50205759  0.35799915     0.97300
C108        C  0.18872471  0.41005031  0.31496693     1.03200
O109        O  0.23927825  0.50053530  0.35227556    -0.79400
C110        C  0.20771374  0.54521359  0.25067528     1.01500
Fe111      Fe  0.08395990  0.16559243  0.44134207     1.65800
Fe112      Fe  0.14905645  0.20367625  0.37866675     1.73200
Fe113      Fe  0.06762680  0.18744688  0.35720168     1.54400
O114        O  0.02468118  0.13835914  0.36889828    -0.83100
O115        O  0.15656213  0.25467474  0.37595828    -0.81500
O116        O  0.03644435  0.12347880  0.42304888    -0.85700
O117        O  0.05948928  0.19470534  0.45024815    -0.80500
O118        O  0.08223713  0.16051272  0.31861147    -0.82300
O119        O  0.17053483  0.21120032  0.43055986    -0.85000
C120        C  0.04538494  0.20813130  0.43020055     0.95700
C121        C  0.01592484  0.11750474  0.39598685     1.03200
O122        O  0.09977735  0.18610302  0.39333078    -1.14000
O123        O  0.13808853  0.15115088  0.38072234    -0.76400
O124        O  0.10670374  0.13395627  0.43337160    -0.79900
O125        O  0.04784147  0.20972566  0.39512084    -0.80600
C126        C  0.12139824  0.12799086  0.40589154     0.94600
O127        O  0.12828830  0.20512496  0.46802881    -0.78600
O128        O  0.13821583  0.19963787  0.32392424    -0.83800
C129        C  0.13751802  0.26275775  0.35587054     0.97300
C130        C  0.11424898  0.17126694  0.30975759     1.03200
O131        O  0.10747479  0.23909941  0.34241252    -0.79400
C132        C  0.15973958  0.21185974  0.46257058     1.01500
Fe133      Fe  0.57921217  0.16697755  0.40114664     1.65800
Fe134      Fe  0.60539336  0.12843039  0.46318604     1.73200
Fe135      Fe  0.54069630  0.14524307  0.48535280     1.54400
O136        O  0.54893090  0.19546519  0.47468310    -0.83100
O137        O  0.56128344  0.07777237  0.46520378    -0.81500
O138        O  0.57454218  0.20928840  0.41968703    -0.85700
O139        O  0.52549282  0.13839013  0.39229064    -0.80500
O140        O  0.58186162  0.17020399  0.52459517    -0.82300
O141        O  0.61995276  0.12201771  0.41079848    -0.85000
C142        C  0.49789190  0.12612042  0.41247898     0.95700
C143        C  0.56086478  0.21597435  0.44714662     1.03200
O144        O  0.57418408  0.14647933  0.44914843    -1.14000
O145        O  0.64747732  0.18047408  0.46163669    -0.76400
O146        O  0.63377856  0.19782232  0.40905038    -0.79900
O147        O  0.49858063  0.12468267  0.44752183    -0.80600
C148        C  0.65449087  0.20340878  0.43627026     0.94600
O149        O  0.58331657  0.12741793  0.37409245    -0.78600
O150        O  0.59946465  0.13166961  0.51871654    -0.83800
C151        C  0.53377382  0.06930622  0.48510860     0.97300
C152        C  0.60158032  0.15825808  0.53491587     1.03200
O153        O  0.52711745  0.09267379  0.49865997    -0.79400
C154        C  0.60895070  0.12212903  0.37882468     1.01500
Fe155      Fe  0.40820135  0.83164240  0.62070907     1.65800
Fe156      Fe  0.37014106  0.86072691  0.56052959     1.73200
Fe157      Fe  0.43964068  0.84973308  0.53450435     1.54400
O158        O  0.48068602  0.86710799  0.57370813    -0.83100
O159        O  0.35737234  0.83545714  0.51135405    -0.81500
O160        O  0.45880718  0.87434325  0.62644073    -0.85700
O161        O  0.42889569  0.80063413  0.60431724    -0.80500
O162        O  0.45471582  0.90164683  0.52283548    -0.82300
O163        O  0.33024114  0.81144223  0.58145023    -0.85000
C164        C  0.43083222  0.78669784  0.57456179     0.95700
C165        C  0.48409285  0.87539129  0.60780858     1.03200
O166        O  0.40595770  0.84773910  0.57165222    -1.14000
O167        O  0.37470559  0.88787610  0.60857142    -0.76400
O168        O  0.38725988  0.85800634  0.64853691    -0.79900
O169        O  0.42749380  0.79797413  0.54367848    -0.80600
C170        C  0.37593120  0.87880332  0.64107050     0.94600
O171        O  0.35821483  0.78843971  0.61297363    -0.78600
O172        O  0.40899759  0.90944417  0.53766615    -0.83800
C173        C  0.37142761  0.82550947  0.48746604     0.97300
C174        C  0.44049508  0.92095290  0.52505277     1.03200
O175        O  0.40272399  0.83054282  0.49109829    -0.79400
C176        C  0.33099734  0.78509178  0.59627279     1.01500
Fe177      Fe  0.41237472  0.58931536  0.61235188     1.65800
Fe178      Fe  0.47973053  0.62096865  0.55071598     1.73200
Fe179      Fe  0.39614269  0.55199721  0.52832655     1.54400
O180        O  0.37140972  0.51311599  0.56977264    -0.83100
O181        O  0.46755133  0.63094613  0.49972169    -0.81500
O182        O  0.40068592  0.53817645  0.62170299    -0.85700
O183        O  0.36039421  0.57022697  0.59632470    -0.80500
O184        O  0.43154851  0.53461029  0.51758118    -0.82300
O185        O  0.47426613  0.66360569  0.56820434    -0.85000
C186        C  0.34322115  0.56421291  0.56667781     0.95700
C187        C  0.37616508  0.51184815  0.60426213     1.03200
O188        O  0.42975832  0.58757157  0.56356468    -1.14000
O189        O  0.50247713  0.61985204  0.60030719    -0.76400
O190        O  0.45957782  0.60874376  0.63979981    -0.79900
O191        O  0.35747103  0.56552824  0.53593113    -0.80600
C192        C  0.49182361  0.61962099  0.63268778     0.94600
O193        O  0.42425080  0.64052151  0.60251376    -0.78600
O194        O  0.48641873  0.57922579  0.53169033    -0.83800
C195        C  0.44199486  0.61681612  0.47738167     0.97300
C196        C  0.46507704  0.54750866  0.52017288     1.03200
O197        O  0.41412220  0.58682930  0.48329911    -0.79400
C198        C  0.45000048  0.66621295  0.58536199     1.01500
Fe199      Fe  0.57533627  0.41092282  0.40278310     1.65800
Fe200      Fe  0.50783023  0.38139547  0.46268877     1.73200
Fe201      Fe  0.58837878  0.44730246  0.48810024     1.54400
O202        O  0.63175801  0.44120130  0.47805362    -0.83100
O203        O  0.49995355  0.42443026  0.46546059    -0.81500
O204        O  0.62146038  0.41541439  0.42315093    -0.85700
O205        O  0.60093707  0.46528702  0.39590245    -0.80500
O206        O  0.57180026  0.40485641  0.52562217    -0.82300
O207        O  0.48883086  0.36848261  0.40967827    -0.85000
C208        C  0.61436321  0.49242308  0.41706070     0.95700
C209        C  0.64095662  0.42896838  0.45121690     1.03200
O210        O  0.55766832  0.41427329  0.45034749    -1.14000
O211        O  0.51929679  0.34058520  0.46064875    -0.76400
O212        O  0.55165934  0.35586932  0.40864021    -0.79900
O213        O  0.61028596  0.49054501  0.45191605    -0.80600
C214        C  0.53661220  0.33479834  0.43575296     0.94600
O215        O  0.53230503  0.40674320  0.37447103    -0.78600
O216        O  0.51574900  0.38628908  0.51814685    -0.83800
C217        C  0.51820534  0.45182855  0.48596462     0.97300
C218        C  0.53959626  0.38268810  0.53325308     1.03200
O219        O  0.54780498  0.45869809  0.50078681    -0.79400
C220        C  0.50079386  0.38109550  0.37828314     1.01500
Fe221      Fe  0.16521118  0.57234144  0.61392453     1.65800
Fe222      Fe  0.12470454  0.50852211  0.55025412     1.73200
Fe223      Fe  0.14349793  0.59178428  0.53124726     1.54400
O224        O  0.12147657  0.61098538  0.56967815    -0.83100
O225        O  0.13188845  0.51969021  0.49517780    -0.81500
O226        O  0.14163063  0.60234647  0.62308603    -0.85700
O227        O  0.21040552  0.61731443  0.59537639    -0.80500
O228        O  0.09187059  0.55317464  0.51422873    -0.82300
O229        O  0.17530053  0.51627001  0.55287730    -0.85000
C230        C  0.21510036  0.64051837  0.57155481     0.95700
C231        C  0.12688680  0.61585672  0.60422034     1.03200
O232        O  0.14411475  0.55803944  0.56574444    -1.14000
O233        O  0.11439156  0.48662829  0.60254461    -0.76400
O234        O  0.12224753  0.53012635  0.63946054    -0.79900
O235        O  0.19291743  0.63423460  0.54594447    -0.80600
C236        C  0.11315415  0.49786381  0.63430384     0.94600
O237        O  0.19196240  0.54420569  0.60728642    -0.78600
O238        O  0.07511198  0.50313055  0.54631800    -0.83800
C239        C  0.15866436  0.54569452  0.48049677     0.97300
C240        C  0.06780919  0.52263439  0.52626516     1.03200
O241        O  0.16907741  0.57727319  0.49141971    -0.79400
C242        C  0.19765100  0.53034232  0.57895673     1.01500
Fe243      Fe  0.82211545  0.41552374  0.40320673     1.65800
Fe244      Fe  0.85901970  0.47883887  0.46809901     1.73200
Fe245      Fe  0.84638777  0.39776471  0.48509578     1.54400
O246        O  0.79790199  0.35388209  0.47278847    -0.83100
O247        O  0.91066957  0.48855672  0.46971477    -0.81500
O248        O  0.78080170  0.36731031  0.42091875    -0.85700
O249        O  0.85182888  0.39207978  0.39189896    -0.80500
O250        O  0.81941034  0.40949668  0.52562996    -0.82300
O251        O  0.86601680  0.50164188  0.41699850    -0.85000
C252        C  0.86694794  0.37880815  0.41056842     0.95700
C253        C  0.77600893  0.34586156  0.44671302     1.03200
O254        O  0.84301385  0.43033945  0.45128964    -1.14000
O255        O  0.80618737  0.46630728  0.46705274    -0.76400
O256        O  0.78971544  0.43701161  0.41315504    -0.79900
O257        O  0.86966795  0.38090961  0.44553627    -0.80600
C258        C  0.78324881  0.45020705  0.44159346     0.94600
O259        O  0.86082691  0.46103360  0.37745078    -0.78600
O260        O  0.85537484  0.46714822  0.52287911    -0.83800
C261        C  0.91987469  0.46968931  0.48845245     0.97300
C262        C  0.82982345  0.44048712  0.53795428     1.03200
O263        O  0.89722534  0.43859168  0.50047533    -0.79400
C264        C  0.86745599  0.49226827  0.38450858     1.01500
Fe265      Fe  0.49937407  0.25136805  0.77314511     1.65800
Fe266      Fe  0.46122189  0.27745310  0.71051095     1.73200
Fe267      Fe  0.47365989  0.20911901  0.69089957     1.54400
O268        O  0.52318523  0.21536142  0.70086731    -0.83100
O269        O  0.40946738  0.23468426  0.70976132    -0.81500
O270        O  0.54010796  0.24459607  0.75394156    -0.85700
O271        O  0.47002703  0.19811393  0.78432698    -0.80500
O272        O  0.49859671  0.24818283  0.64976234    -0.82300
O273        O  0.45625584  0.29389463  0.76255307    -0.85000
C274        C  0.45588902  0.16951671  0.76550558     0.95700
C275        C  0.54495809  0.22863049  0.72730608     1.03200
O276        O  0.47759568  0.24506158  0.72559448    -1.14000
O277        O  0.51415258  0.31835891  0.71045996    -0.76400
O278        O  0.53137249  0.30553107  0.76352006    -0.79900
O279        O  0.45272149  0.16863552  0.73055724    -0.80600
C280        C  0.53734953  0.32549233  0.73559533     0.94600
O281        O  0.46138978  0.25777974  0.80046686    -0.78600
O282        O  0.46291652  0.26949642  0.65520235    -0.83800
C283        C  0.39952403  0.20605768  0.69110704     0.97300
C284        C  0.48779460  0.26862931  0.63860062     1.03200
O285        O  0.42166914  0.19738948  0.67837319    -0.79400
C286        C  0.45588327  0.28318632  0.79480248     1.01500
Fe287      Fe  0.16192460  0.08139413  0.55566574     1.65800
Fe288      Fe  0.19102854  0.04328501  0.61585419     1.73200
Fe289      Fe  0.17856223  0.11205563  0.64245848     1.54400
O290        O  0.19569711  0.15357482  0.60398677    -0.83100
O291        O  0.16555823  0.02998546  0.66519819    -0.81500
O292        O  0.20385363  0.13257812  0.55112907    -0.85700
O293        O  0.12949147  0.10025280  0.57203392    -0.80500
O294        O  0.23072073  0.12776945  0.65456576    -0.82300
O295        O  0.14244765  0.00323204  0.59455637    -0.85000
C296        C  0.11503614  0.10176213  0.60154169     0.95700
C297        C  0.20445212  0.15751116  0.57005908     1.03200
O298        O  0.17740884  0.07877464  0.60493436    -1.14000
O299        O  0.21787673  0.04745654  0.56741163    -0.76400
O300        O  0.18952324  0.06216662  0.52766629    -0.79900
O301        O  0.12659545  0.09946682  0.63273048    -0.80600
C302        C  0.20949512  0.04984689  0.53484535     0.94600
O303        O  0.11957787  0.03058760  0.56162990    -0.78600
O304        O  0.23938012  0.08268775  0.63888377    -0.83800
C305        C  0.15493524  0.04360089  0.68896532     0.97300
C306        C  0.25048432  0.11405410  0.65190273     1.03200
O307        O  0.15942298  0.07472024  0.68540934    -0.79400
C308        C  0.11650578  0.00342027  0.57822257     1.01500
Fe309      Fe  0.74282216  0.24965591  0.77159035     1.65800
Fe310      Fe  0.71594274  0.18349929  0.71013885     1.73200
Fe311      Fe  0.78059465  0.26523702  0.68692694     1.54400
O312        O  0.77363140  0.30788784  0.69771700    -0.83100
O313        O  0.75996169  0.17739068  0.70836589    -0.81500
O314        O  0.74823297  0.29678644  0.75277526    -0.85700
O315        O  0.79691047  0.27510584  0.78001692    -0.80500
O316        O  0.73851190  0.24832780  0.64841859    -0.82300
O317        O  0.70146810  0.16288498  0.76239987    -0.85000
C318        C  0.82433120  0.28982535  0.75935262     0.95700
C319        C  0.76214552  0.31696341  0.72524612     1.03200
O320        O  0.74739126  0.23333993  0.72378029    -1.14000
O321        O  0.67381845  0.19303804  0.71156504    -0.76400
O322        O  0.68805908  0.22570653  0.76356218    -0.79900
O323        O  0.82303647  0.28709762  0.72430872    -0.80600
C324        C  0.66695054  0.20942374  0.73669452     0.94600
O325        O  0.73794392  0.20592031  0.79918026    -0.78600
O326        O  0.72289751  0.19293900  0.65504583    -0.83800
C327        C  0.78718071  0.19624788  0.68793700     0.97300
C328        C  0.71801135  0.21589863  0.63981788     1.03200
O329        O  0.79345385  0.22582604  0.67354776    -0.79400
C330        C  0.71278289  0.17431659  0.79429442     1.01500
Fe331      Fe  0.91951413  0.08754216  0.55679858     1.65800
Fe332      Fe  0.95377531  0.15622416  0.61705069     1.73200
Fe333      Fe  0.88513848  0.07362233  0.64193752     1.54400
O334        O  0.84511708  0.04853405  0.60169342    -0.83100
O335        O  0.96550259  0.14469486  0.66725502    -0.81500
O336        O  0.86842744  0.07670901  0.54880746    -0.85700
O337        O  0.89990366  0.03551813  0.57350475    -0.80500
O338        O  0.86869749  0.10963978  0.65277391    -0.82300
O339        O  0.99534987  0.14948776  0.59816844    -0.85000
C340        C  0.89562937  0.01927753  0.60350828     0.95700
C341        C  0.84267329  0.05260073  0.56725506     1.03200
O342        O  0.91952397  0.10616233  0.60546026    -1.14000
O343        O  0.95066686  0.17798268  0.56786715    -0.76400
O344        O  0.93970583  0.13477701  0.52871627    -0.79900
O345        O  0.89796243  0.03434364  0.63407235    -0.80600
C346        C  0.95068684  0.16717333  0.53565670     0.94600
O347        O  0.97028266  0.09802512  0.56602863    -0.78600
O348        O  0.91332333  0.16415993  0.63771481    -0.83800
C349        C  0.95203935  0.11988527  0.69044783     0.97300
C350        C  0.88188051  0.14321154  0.64999669     1.03200
O351        O  0.92132547  0.09242699  0.68603097    -0.79400
C352        C  0.99664234  0.12371562  0.58256042     1.01500
Fe353      Fe  0.74760089  0.49678853  0.77148384     1.65800
Fe354      Fe  0.81214849  0.53522092  0.70839825     1.73200
Fe355      Fe  0.73037545  0.51879549  0.68778161     1.54400
O356        O  0.68762122  0.46944525  0.69971549    -0.83100
O357        O  0.81955742  0.58593467  0.70596569    -0.81500
O358        O  0.70070348  0.45378132  0.75273934    -0.85700
O359        O  0.72177676  0.52459568  0.78058264    -0.80500
O360        O  0.74457274  0.49177827  0.64912305    -0.82300
O361        O  0.83383954  0.54304212  0.76005973    -0.85000
C362        C  0.70777841  0.53836783  0.76090022     0.95700
C363        C  0.67975693  0.44782171  0.72602286     1.03200
O364        O  0.76294486  0.51751956  0.72350510    -1.14000
O365        O  0.80165556  0.48302080  0.71038948    -0.76400
O366        O  0.77164654  0.46644051  0.76378756    -0.79900
O367        O  0.71070133  0.54091327  0.72590472    -0.80600
C368        C  0.78587921  0.46029558  0.73607251     0.94600
O369        O  0.79182586  0.53704772  0.79793429    -0.78600
O370        O  0.80057788  0.53089292  0.65388207    -0.83800
C371        C  0.80066502  0.59414657  0.68592433     0.97300
C372        C  0.77650871  0.50217239  0.64044876     1.03200
O373        O  0.77031061  0.57062044  0.67281645    -0.79400
C374        C  0.82334009  0.54394847  0.79214427     1.01500
Fe375      Fe  0.90314987  0.83745672  0.55938680     1.65800
Fe376      Fe  0.84111957  0.80060475  0.62494139     1.73200
Fe377      Fe  0.92376023  0.81749915  0.64224279     1.54400
O378        O  0.94254131  0.79506590  0.60382370    -0.83100
O379        O  0.85272226  0.80725167  0.68011031    -0.81500
O380        O  0.93165653  0.81233285  0.54980626    -0.85700
O381        O  0.94941093  0.88220370  0.57584015    -0.80500
O382        O  0.88470980  0.76595045  0.65923407    -0.82300
O383        O  0.85108620  0.85220939  0.62195692    -0.85000
C384        C  0.97239666  0.88767970  0.60020951     0.95700
C385        C  0.94641247  0.79911997  0.56909090     1.03200
O386        O  0.88990535  0.81820640  0.60831351    -1.14000
O387        O  0.81811163  0.79071786  0.57316315    -0.76400
O388        O  0.85948120  0.79426027  0.53598351    -0.79900
O389        O  0.96589938  0.86665942  0.62702991    -0.80600
C390        C  0.82805260  0.78756493  0.54141209     0.94600
O391        O  0.87685918  0.86613636  0.56639150    -0.78600
O392        O  0.83393928  0.75016254  0.62881715    -0.83800
C393        C  0.87962141  0.83220958  0.69582176     0.97300
C394        C  0.85356985  0.74230437  0.64798483     1.03200
O395        O  0.91056800  0.84365280  0.68271889    -0.79400
C396        C  0.86459534  0.87356157  0.59493530     1.01500
Fe397      Fe  0.49028621  0.75159679  0.73315349     1.65800
Fe398      Fe  0.52824864  0.81545294  0.79768988     1.73200
Fe399      Fe  0.51350149  0.73364124  0.81570060     1.54400
O400        O  0.46415066  0.69084084  0.80360640    -0.83100
O401        O  0.57956391  0.82417618  0.80089261    -0.81500
O402        O  0.44759047  0.70428890  0.75134749    -0.85700
O403        O  0.51815788  0.72610299  0.72251079    -0.80500
O404        O  0.48762641  0.74700943  0.85630680    -0.82300
O405        O  0.53631977  0.83766938  0.74617711    -0.85000
C406        C  0.53246973  0.71214390  0.74134370     0.95700
C407        C  0.44214177  0.68309908  0.77765664     1.03200
O408        O  0.51126229  0.76653168  0.78140626    -1.14000
O409        O  0.47583684  0.80428658  0.79554834    -0.76400
O410        O  0.45957073  0.77515353  0.74163146    -0.79900
O411        O  0.53548486  0.71479291  0.77632438    -0.80600
C412        C  0.45325242  0.78892135  0.76963537     0.94600
O413        O  0.53028418  0.79621953  0.70731121    -0.78600
O414        O  0.52357671  0.80470837  0.85272756    -0.83800
C415        C  0.58804595  0.80501619  0.82015826     0.97300
C416        C  0.49834626  0.77820519  0.86835657     1.03200
O417        O  0.56495952  0.77358449  0.83106395    -0.79400
C418        C  0.53721710  0.82765891  0.71382245     1.01500
Fe419      Fe  0.83243378  0.90589982  0.94915770     1.65800
Fe420      Fe  0.79175636  0.84249678  0.88530027     1.73200
Fe421      Fe  0.81188009  0.92585358  0.86617200     1.54400
O422        O  0.79071364  0.94613190  0.90437907    -0.83100
O423        O  0.79805483  0.85391563  0.83024231    -0.81500
O424        O  0.80945765  0.93645284  0.95822136    -0.85700
O425        O  0.87793937  0.95083072  0.93120268    -0.80500
O426        O  0.75974063  0.88765764  0.84956228    -0.82300
O427        O  0.84252192  0.85027422  0.88731238    -0.85000
C428        C  0.88311579  0.97392050  0.90704576     0.95700
C429        C  0.79590987  0.95092425  0.93896780     1.03200
O430        O  0.81162796  0.89197740  0.90091430    -1.14000
O431        O  0.78206279  0.82047798  0.93756592    -0.76400
O432        O  0.78896047  0.86377045  0.97413750    -0.79900
O433        O  0.86150462  0.96756198  0.88084552    -0.80600
C434        C  0.78055493  0.83167503  0.96926095     0.94600
O435        O  0.85869287  0.87727543  0.94224214    -0.78600
O436        O  0.74226836  0.83767884  0.88212816    -0.83800
C437        C  0.82578938  0.87888396  0.81576400     0.97300
C438        C  0.73528771  0.85742668  0.86201356     1.03200
O439        O  0.83734187  0.91066092  0.82663598    -0.79400
C440        C  0.86477019  0.86407728  0.91357618     1.01500
Fe441      Fe  0.24351075  0.50115840  0.73518766     1.65800
Fe442      Fe  0.27191493  0.46556558  0.79851638     1.73200
Fe443      Fe  0.20455600  0.47893511  0.81921637     1.54400
O444        O  0.21125317  0.52837224  0.80840811    -0.83100
O445        O  0.22915460  0.41396385  0.80126555    -0.81500
O446        O  0.23609184  0.54184716  0.75308492    -0.85700
O447        O  0.18999595  0.47010608  0.72576358    -0.80500
O448        O  0.24494969  0.50516356  0.85892251    -0.82300
O449        O  0.28682731  0.45873896  0.74661460    -0.85000
C450        C  0.16227508  0.45794778  0.74575922     0.95700
C451        C  0.22250077  0.54849890  0.78060939     1.03200
O452        O  0.23910063  0.48139599  0.78356841    -1.14000
O453        O  0.31265810  0.51838052  0.79605604    -0.76400
O454        O  0.29777918  0.53463388  0.74347989    -0.79900
O455        O  0.16286153  0.45731413  0.78085750    -0.80600
C456        C  0.31885660  0.54101704  0.77055514     0.94600
O457        O  0.25040800  0.46309863  0.70853149    -0.78600
O458        O  0.26616757  0.46942735  0.85398894    -0.83800
C459        C  0.20083143  0.40449025  0.82016059     0.97300
C460        C  0.26606355  0.49511798  0.86975416     1.03200
O461        O  0.19259389  0.42701201  0.83280720    -0.79400
C462        C  0.27592859  0.45786596  0.71438263     1.01500
Fe463      Fe  0.07602416  0.16480120  0.95307188     1.65800
Fe464      Fe  0.03817336  0.19427262  0.89300059     1.73200
Fe465      Fe  0.10817234  0.18371223  0.86689109     1.54400
O466        O  0.14905470  0.20000109  0.90629509    -0.83100
O467        O  0.02595347  0.16973179  0.84335413    -0.81500
O468        O  0.12689853  0.20687847  0.95888520    -0.85700
O469        O  0.09517152  0.13269342  0.93589014    -0.80500
O470        O  0.12341728  0.23600011  0.85630577    -0.82300
O471        O  0.99813470  0.14481507  0.91304316    -0.85000
C472        C  0.09724319  0.11909612  0.90593261     0.95700
C473        C  0.15220818  0.20784040  0.94049504     1.03200
O474        O  0.07398736  0.18114975  0.90404923    -1.14000
O475        O  0.04146305  0.22031566  0.94167138    -0.76400
O476        O  0.05638150  0.19206092  0.98136394    -0.79900
O477        O  0.09592824  0.13169956  0.87504701    -0.80600
C478        C  0.04406494  0.21208309  0.97419780     0.94600
O479        O  0.02555616  0.12221559  0.94616146    -0.78600
O480        O  0.07737858  0.24338760  0.87100025    -0.83800
C481        C  0.04028688  0.16028596  0.81928346     0.97300
C482        C  0.10906428  0.25521038  0.85870189     1.03200
O483        O  0.07163731  0.16543957  0.82298470    -0.79400
C484        C  0.99847870  0.11882840  0.92918281     1.01500
Fe485      Fe  0.24213676  0.74533612  0.73391734     1.65800
Fe486      Fe  0.17678471  0.71861319  0.79611732     1.73200
Fe487      Fe  0.25844452  0.78474081  0.81790424     1.54400
O488        O  0.30156803  0.77865834  0.80644505    -0.83100
O489        O  0.16972353  0.76200282  0.79792029    -0.81500
O490        O  0.28936239  0.75077357  0.75259707    -0.85700
O491        O  0.26750916  0.79935606  0.72502333    -0.80500
O492        O  0.24328241  0.74345630  0.85666450    -0.82300
O493        O  0.15560113  0.70349960  0.74405834    -0.85000
C494        C  0.28150455  0.82719512  0.74521005     0.95700
C495        C  0.31010384  0.76593107  0.77953089     1.03200
O496        O  0.22628412  0.75050018  0.78173921    -1.14000
O497        O  0.18695932  0.67701098  0.79478680    -0.76400
O498        O  0.21834994  0.69066186  0.74213215    -0.79900
O499        O  0.27857641  0.82656429  0.78017302    -0.80600
C500        C  0.20301950  0.67002823  0.76948769     0.94600
O501        O  0.19802839  0.74010899  0.70684908    -0.78600
O502        O  0.18747726  0.72641411  0.85095412    -0.83800
C503        C  0.18845135  0.78948749  0.81810687     0.97300
C504        C  0.21115687  0.72213612  0.86535934     1.03200
O505        O  0.21850791  0.79662826  0.83191149    -0.79400
C506        C  0.16664101  0.71464617  0.71203208     1.01500
Fe507      Fe  0.07847193  0.92091033  0.94935989     1.65800
Fe508      Fe  0.14716127  0.95469155  0.88983344     1.73200
Fe509      Fe  0.06452622  0.88636526  0.86439474     1.54400
O510        O  0.03906557  0.84647487  0.90488231    -0.83100
O511        O  0.13571479  0.96723811  0.84016299    -0.81500
O512        O  0.06781069  0.86989434  0.95757196    -0.85700
O513        O  0.02661256  0.90095911  0.93237692    -0.80500
O514        O  0.10008597  0.86929361  0.85406661    -0.82300
O515        O  0.14123855  0.99662397  0.90965891    -0.85000
C516        C  0.01036990  0.89680551  0.90240279     0.95700
C517        C  0.04336451  0.84414815  0.93933582     1.03200
O518        O  0.09708072  0.92068000  0.90093557    -1.14000
O519        O  0.16818901  0.94996745  0.93872497    -0.76400
O520        O  0.12572688  0.94161566  0.97756536    -0.79900
O521        O  0.02555854  0.89968721  0.87183219    -0.80600
C522        C  0.15780296  0.95126304  0.97075865     0.94600
O523        O  0.08872676  0.97142484  0.93953024    -0.78600
O524        O  0.15465387  0.91426615  0.86826046    -0.83800
C525        C  0.11127865  0.95377688  0.81655842     0.97300
C526        C  0.13365033  0.88259340  0.85649320     1.03200
O527        O  0.08402261  0.92274730  0.82032966    -0.79400
C528        C  0.11505750  0.99797205  0.92404748     1.01500
Fe529      Fe  0.58604989  0.41997943  0.89336854     1.65800
Fe530      Fe  0.62123804  0.48952963  0.95248756     1.73200
Fe531      Fe  0.55218228  0.40743077  0.97861661     1.54400
O532        O  0.51193021  0.38085384  0.93856311    -0.83100
O533        O  0.63247717  0.47901483  0.00346731    -0.81500
O534        O  0.53499787  0.40911319  0.88586984    -0.85700
O535        O  0.56740995  0.36873108  0.91157529    -0.80500
O536        O  0.53586262  0.44385401  0.98783223    -0.82300
O537        O  0.66241826  0.48164159  0.93484082    -0.85000
C538        C  0.56373018  0.35308455  0.94184802     0.95700
C539        C  0.50943343  0.38472564  0.90408798     1.03200
O540        O  0.58668153  0.43937173  0.94173227    -1.14000
O541        O  0.61919755  0.51081957  0.90239722    -0.76400
O542        O  0.60487958  0.46614727  0.86411716    -0.79900
O543        O  0.56543917  0.36826672  0.97218536    -0.80600
C544        C  0.61692393  0.49882949  0.87025151     0.94600
O545        O  0.63710913  0.43085262  0.90150099    -0.78600
O546        O  0.58071938  0.49809141  0.97187855    -0.83800
C547        C  0.61873161  0.45478692  0.02725859     0.97300
C548        C  0.54918970  0.47741457  0.98421997     1.03200
O549        O  0.58807101  0.42725647  0.02293635    -0.79400
C550        C  0.66350635  0.45612933  0.91837089     1.01500
Fe551      Fe  0.40645910  0.58165454  0.10180067     1.65800
Fe552      Fe  0.38150699  0.51702995  0.03910350     1.73200
Fe553      Fe  0.44719590  0.59938056  0.01845569     1.54400
O554        O  0.44023383  0.64171817  0.03038248    -0.83100
O555        O  0.42555661  0.51094240  0.03747040    -0.81500
O556        O  0.40951971  0.62761953  0.08260546    -0.85700
O557        O  0.46015634  0.60936225  0.11120348    -0.80500
O558        O  0.40587470  0.58397852  0.97927089    -0.82300
O559        O  0.36695716  0.49571178  0.09112224    -0.85000
C560        C  0.48844228  0.62376957  0.09195414     0.95700
C561        C  0.42583763  0.64913326  0.05655199     1.03200
O562        O  0.41275454  0.56653544  0.05401227    -1.14000
O563        O  0.33926555  0.52645592  0.04037736    -0.76400
O564        O  0.35177394  0.55572449  0.09420149    -0.79900
O565        O  0.48883214  0.62021902  0.05704392    -0.80600
C566        C  0.33167326  0.54145593  0.06632331     0.94600
O567        O  0.40352826  0.53835794  0.12833585    -0.78600
O568        O  0.38915996  0.52817504  0.98439622    -0.83800
C569        C  0.45335819  0.53022169  0.01795976     0.97300
C570        C  0.38432951  0.55177711  0.97065813     1.03200
O571        O  0.46003493  0.56011954  0.00407599    -0.79400
C572        C  0.37839250  0.50676948  0.12312281     1.01500
Fe573      Fe  0.57325560  0.17315852  0.89591210     1.65800
Fe574      Fe  0.51162911  0.13482119  0.96140576     1.73200
Fe575      Fe  0.59437677  0.15153960  0.97751583     1.54400
O576        O  0.61131628  0.12802905  0.93839624    -0.83100
O577        O  0.52437057  0.14160072  0.01618953    -0.81500
O578        O  0.60262484  0.14912869  0.88568587    -0.85700
O579        O  0.61860064  0.21805767  0.91356921    -0.80500
O580        O  0.55530440  0.10058508  0.99576635    -0.82300
O581        O  0.52129963  0.18641065  0.95930515    -0.85000
C582        C  0.64268661  0.22206761  0.93583250     0.95700
C583        C  0.61597358  0.13386201  0.90391561     1.03200
O584        O  0.56019891  0.15266795  0.94430303    -1.14000
O585        O  0.48836211  0.12493304  0.90955242    -0.76400
O586        O  0.53010729  0.13008931  0.87173382    -0.79900
O587        O  0.63708167  0.19999292  0.96131403    -0.80600
C588        C  0.49840727  0.12245488  0.87755041     0.94600
O589        O  0.54603015  0.20066064  0.90344191    -0.78600
O590        O  0.50458490  0.08434486  0.96517069    -0.83800
C591        C  0.55133975  0.16685885  0.03155787     0.97300
C592        C  0.52410510  0.07678625  0.98494931     1.03200
O593        O  0.58222969  0.17843414  0.01814912    -0.79400
C594        C  0.53451332  0.20803838  0.93251755     1.01500
Fe595      Fe  0.41585194  0.83017505  0.10847108     1.65800
Fe596      Fe  0.48185184  0.86924191  0.04670932     1.73200
Fe597      Fe  0.40080353  0.85400355  0.02479536     1.54400
O598        O  0.35735541  0.80448064  0.03503359    -0.83100
O599        O  0.49002479  0.92046825  0.04513980    -0.81500
O600        O  0.36833457  0.78843226  0.08890344    -0.85700
O601        O  0.39158833  0.85944143  0.11797723    -0.80500
O602        O  0.41559589  0.82792859  0.98558683    -0.82300
O603        O  0.50273266  0.87561300  0.09890101    -0.85000
C604        C  0.37811846  0.87362526  0.09809366     0.95700
C605        C  0.34823357  0.78282777  0.06148748     1.03200
O606        O  0.43242894  0.85172157  0.06094159    -1.14000
O607        O  0.47021868  0.81670452  0.04742159    -0.76400
O608        O  0.43848935  0.79871515  0.09980783    -0.79900
O609        O  0.38088879  0.87571812  0.06307894    -0.80600
C610        C  0.45295644  0.79307857  0.07194202     0.94600
O611        O  0.46016876  0.86873755  0.13645401    -0.78600
O612        O  0.47184890  0.86619025  0.99168825    -0.83800
C613        C  0.47140313  0.92912014  0.02514318     0.97300
C614        C  0.44755847  0.83839966  0.97683377     1.03200
O615        O  0.44127391  0.90587789  0.01142348    -0.79400
C616        C  0.49179049  0.87584506  0.13098102     1.01500
Fe617      Fe  0.16558535  0.58609770  0.10326235     1.65800
Fe618      Fe  0.12903671  0.61355615  0.04013123     1.73200
Fe619      Fe  0.14222679  0.54602122  0.01986455     1.54400
O620        O  0.19165633  0.55282259  0.03026512    -0.83100
O621        O  0.07741542  0.57063807  0.03851952    -0.81500
O622        O  0.20646548  0.57894909  0.08503720    -0.85700
O623        O  0.13523239  0.53250337  0.11335705    -0.80500
O624        O  0.16790351  0.58604899  0.97983345    -0.82300
O625        O  0.12334600  0.62951317  0.09189287    -0.85000
C626        C  0.12231317  0.50445309  0.09365574     0.95700
C627        C  0.21234755  0.56454859  0.05762327     1.03200
O628        O  0.14512961  0.58097254  0.05520265    -1.14000
O629        O  0.18207775  0.65450130  0.04131786    -0.76400
O630        O  0.19830212  0.64043587  0.09439280    -0.79900
O631        O  0.12091626  0.50466850  0.05857924    -0.80600
C632        C  0.20475182  0.66113179  0.06695648     0.94600
O633        O  0.12734366  0.59275313  0.12979828    -0.78600
O634        O  0.13131355  0.60611840  0.98494437    -0.83800
C635        C  0.06787345  0.54218100  0.01968167     0.97300
C636        C  0.15702320  0.60645683  0.96893061     1.03200
O637        O  0.09030708  0.53398767  0.00678138    -0.79400
C638        C  0.12243108  0.61853975  0.12407454     1.01500
Fe639      Fe  0.82976613  0.41476478  0.88447321     1.65800
Fe640      Fe  0.86044512  0.37770497  0.94426177     1.73200
Fe641      Fe  0.84702795  0.44576954  0.97085626     1.54400
O642        O  0.86288110  0.48691858  0.93211959    -0.83100
O643        O  0.83427924  0.36352339  0.99318357    -0.81500
O644        O  0.87106649  0.46617401  0.87910988    -0.85700
O645        O  0.79693413  0.43322926  0.90126703    -0.80500
O646        O  0.89947688  0.46258904  0.98215027    -0.82300
O647        O  0.81245628  0.33697666  0.92235813    -0.85000
C648        C  0.78266462  0.43437144  0.93110408     0.95700
C649        C  0.87126896  0.49089550  0.89808514     1.03200
O650        O  0.84611776  0.41269630  0.93344284    -1.14000
O651        O  0.88813898  0.38356688  0.89612196    -0.76400
O652        O  0.85757138  0.39564875  0.85652467    -0.79900
O653        O  0.79462578  0.43181805  0.96193535    -0.80600
C654        C  0.87875013  0.38473293  0.86366405     0.94600
O655        O  0.78810336  0.36399136  0.89145810    -0.78600
O656        O  0.90828084  0.41731473  0.96800976    -0.83800
C657        C  0.82424451  0.37739246  0.01726896     0.97300
C658        C  0.91929601  0.44891565  0.98024699     1.03200
O659        O  0.82918901  0.40871975  0.01400264    -0.79400
C660        C  0.78579079  0.33691669  0.90746949     1.01500
Fe661      Fe  0.91409106  0.83554011  0.06927779     1.65800
Fe662      Fe  0.93997561  0.79767498  0.13243231     1.73200
Fe663      Fe  0.87512382  0.81452500  0.15342936     1.54400
O664        O  0.88313648  0.86431413  0.14132556    -0.83100
O665        O  0.89578007  0.74695104  0.13556799    -0.81500
O666        O  0.91060024  0.87869045  0.08724765    -0.85700
O667        O  0.86023679  0.80759218  0.06059370    -0.80500
O668        O  0.91614853  0.84025069  0.19273337    -0.82300
O669        O  0.95380750  0.78985753  0.08036638    -0.85000
C670        C  0.83245769  0.79448107  0.08059693     0.95700
C671        C  0.89623477  0.88520875  0.11420798     1.03200
O672        O  0.90883606  0.81552226  0.11765901    -1.14000
O673        O  0.98241424  0.84979711  0.12979710    -0.76400
O674        O  0.96890724  0.86597426  0.07643009    -0.79900
O675        O  0.83303133  0.79283025  0.11561228    -0.80600
C676        C  0.98968828  0.87215979  0.10372154     0.94600
O677        O  0.91714071  0.79490987  0.04329251    -0.78600
O678        O  0.93434967  0.80203846  0.18775279    -0.83800
C679        C  0.86835774  0.73881667  0.15550679     0.97300
C680        C  0.93580826  0.82843042  0.20369009     1.03200
O681        O  0.86169703  0.76241372  0.16827742    -0.79400
C682        C  0.94236457  0.78904635  0.04839773     1.01500
Fe683      Fe  0.74051960  0.49915302  0.29135869     1.65800
Fe684      Fe  0.70345966  0.53033402  0.23209085     1.73200
Fe685      Fe  0.77265924  0.51876582  0.20544224     1.54400
O686        O  0.81345842  0.53466672  0.24468496    -0.83100
O687        O  0.69083805  0.50618585  0.18204526    -0.81500
O688        O  0.79146969  0.54087200  0.29776473    -0.85700
O689        O  0.75968650  0.46705570  0.27373922    -0.80500
O690        O  0.78837351  0.57115089  0.19523233    -0.82300
O691        O  0.66288911  0.48086092  0.25180523    -0.85000
C692        C  0.76215414  0.45392532  0.24360968     0.95700
C693        C  0.81674767  0.54221422  0.27894363     1.03200
O694        O  0.73876588  0.51636515  0.24270991    -1.14000
O695        O  0.70749504  0.55612643  0.28119510    -0.76400
O696        O  0.72087563  0.52609164  0.32016553    -0.79900
O697        O  0.76006545  0.46653146  0.21301504    -0.80600
C698        C  0.70927565  0.54680634  0.31349720     0.94600
O699        O  0.69006626  0.45715729  0.28358224    -0.78600
O700        O  0.74308013  0.57952639  0.21037379    -0.83800
C701        C  0.70502315  0.49653046  0.15795365     0.97300
C702        C  0.77459578  0.59084577  0.19782024     1.03200
O703        O  0.73611881  0.50109316  0.16177270    -0.79400
C704        C  0.66307196  0.45436301  0.26696074     1.01500
Fe705      Fe  0.91304673  0.08170061  0.06866878     1.65800
Fe706      Fe  0.84741482  0.05332614  0.13063723     1.73200
Fe707      Fe  0.92857120  0.11994461  0.15332772     1.54400
O708        O  0.97181184  0.11411429  0.14189853    -0.83100
O709        O  0.83954305  0.09639458  0.13344153    -0.81500
O710        O  0.95998999  0.08723861  0.08751202    -0.85700
O711        O  0.93789287  0.13570611  0.06056226    -0.80500
O712        O  0.91358002  0.07816662  0.19159983    -0.82300
O713        O  0.82668428  0.03905229  0.07828128    -0.85000
C714        C  0.95194996  0.16335312  0.08096819     0.95700
C715        C  0.98037624  0.10164913  0.11478647     1.03200
O716        O  0.89681171  0.08601137  0.11667275    -1.14000
O717        O  0.85873464  0.01242076  0.12842045    -0.76400
O718        O  0.89008320  0.02693191  0.07576635    -0.79900
O719        O  0.94899074  0.16239216  0.11598101    -0.80600
C720        C  0.87538852  0.00616304  0.10314998     0.94600
O721        O  0.86908081  0.07650933  0.04158899    -0.78600
O722        O  0.85746644  0.05974005  0.18568070    -0.83800
C723        C  0.85810053  0.12400226  0.15360827     1.00900
C724        C  0.88155472  0.05596499  0.19989370     1.03200
O725        O  0.88817841  0.13125369  0.16750267    -0.79400
C726        C  0.83781240  0.05077447  0.04641600     1.01500
Fe727      Fe  0.74871873  0.25775169  0.28033485     1.65800
Fe728      Fe  0.81706904  0.29161944  0.21989945     1.73200
Fe729      Fe  0.73434790  0.22268786  0.19519489     1.54400
O730        O  0.70823184  0.18291860  0.23566602    -0.83100
O731        O  0.80578064  0.30252416  0.16937809    -0.81500
O732        O  0.73651332  0.20618716  0.28846283    -0.85700
O733        O  0.69738705  0.23962623  0.26296784    -0.80500
O734        O  0.77022478  0.20563187  0.18526536    -0.82300
O735        O  0.81036031  0.33371346  0.23767637    -0.85000
C736        C  0.68090973  0.23486762  0.23302865     0.95700
C737        C  0.71195864  0.18063054  0.27021200     1.03200
O738        O  0.76705500  0.25744425  0.23162494    -1.14000
O739        O  0.83911542  0.28970711  0.26927393    -0.76400
O740        O  0.79554037  0.27644144  0.30862861    -0.79900
O741        O  0.69541428  0.23611825  0.20239505    -0.80600
C742        C  0.82800276  0.28819134  0.30161383     0.94600
O743        O  0.76029887  0.30902894  0.27182156    -0.78600
O744        O  0.82470563  0.25046612  0.20044321    -0.83800
C745        C  0.78115001  0.28899212  0.14604248     0.97300
C746        C  0.80376770  0.21876970  0.18851920     1.03200
O747        O  0.75354852  0.25840201  0.15058509    -0.79400
C748        C  0.78538729  0.33528720  0.25468555     1.01500
Fe749      Fe  0.50104101  0.24115206  0.28052887     1.65800
Fe750      Fe  0.46147128  0.17767968  0.21698266     1.73200
Fe751      Fe  0.47979049  0.26027640  0.19769375     1.54400
O752        O  0.45616965  0.27829134  0.23526928    -0.83100
O753        O  0.46778625  0.19002770  0.16223986    -0.81500
O754        O  0.47771922  0.27157736  0.28878965    -0.85700
O755        O  0.54633986  0.28571194  0.26192039    -0.80500
O756        O  0.42862421  0.22091278  0.17986298    -0.82300
O757        O  0.51268844  0.18655336  0.21898448    -0.85000
C758        C  0.55017239  0.30954913  0.23936421     0.95700
C759        C  0.46231249  0.28422928  0.26960451     1.03200
O760        O  0.48024746  0.22686479  0.23253896    -1.14000
O761        O  0.45196175  0.15581999  0.26933769    -0.76400
O762        O  0.45770134  0.19894725  0.30558978    -0.79900
O763        O  0.52807127  0.30340010  0.21374279    -0.80600
C764        C  0.44969253  0.16691935  0.30086608     0.94600
O765        O  0.52750207  0.21271142  0.27425642    -0.78600
O766        O  0.41165151  0.17188278  0.21383357    -0.83800
C767        C  0.49611626  0.21481749  0.14852834     0.97300
C768        C  0.40436915  0.19100010  0.19309958     1.03200
O769        O  0.50740756  0.24660251  0.15922743    -0.79400
C770        C  0.53466063  0.20062225  0.24543059     1.01500
Fe771      Fe  0.15918954  0.08442153  0.06795135     1.65800
Fe772      Fe  0.19684794  0.14856575  0.13212753     1.73200
Fe773      Fe  0.18241746  0.06706840  0.15067079     1.54400
O774        O  0.13350689  0.02350388  0.13840506    -0.83100
O775        O  0.24809663  0.15739898  0.13458176    -0.81500
O776        O  0.11714056  0.03635027  0.08569842    -0.85700
O777        O  0.18813409  0.06005928  0.05750018    -0.80500
O778        O  0.15597382  0.08015154  0.19084074    -0.82300
O779        O  0.20420085  0.17084525  0.08054596    -0.85000
C780        C  0.20230789  0.04617320  0.07670254     0.95700
C781        C  0.11194976  0.01512211  0.11190398     1.03200
O782        O  0.17995383  0.09960592  0.11611029    -1.14000
O783        O  0.14458921  0.13714567  0.13046913    -0.76400
O784        O  0.12769268  0.10703969  0.07700884    -0.79900
O785        O  0.20501429  0.04879136  0.11168104    -0.80600
C786        C  0.12181539  0.12139924  0.10484164     0.94600
O787        O  0.19853838  0.12939487  0.04196991    -0.78600
O788        O  0.19262349  0.13765299  0.18720017    -0.83800
C789        C  0.25671012  0.13852579  0.15411708     0.97300
C790        C  0.16701378  0.11141828  0.20281851     1.03200
O791        O  0.23364656  0.10749864  0.16602741    -0.79400
C792        C  0.20500864  0.16070737  0.04821388     1.01500
C793        C  0.32168699  0.18626780  0.15230020    -0.14800
C794        C  0.29459382  0.15261406  0.16421899     0.07300
C795        C  0.30398476  0.13196594  0.18598028    -0.14800
C796        C  0.33946553  0.14443548  0.19535438    -0.14800
C797        C  0.36662771  0.17790938  0.18321677     0.07300
C798        C  0.35730303  0.19876318  0.16167513    -0.14800
H799        H  0.31542151  0.20290146  0.13562146     0.11300
H800        H  0.28388640  0.10593171  0.19578356     0.11300
H801        H  0.34558320  0.12769509  0.21204149     0.11300
H802        H  0.37753594  0.22479109  0.15199604     0.11300
C803        C  0.62087497  0.21436008  0.20436442    -0.14800
C804        C  0.64324053  0.22578566  0.23525637     0.07300
C805        C  0.62862202  0.22598441  0.26970315    -0.14800
C806        C  0.59288774  0.21587275  0.27315371    -0.14800
C807        C  0.57063732  0.20524860  0.24227950     0.07300
C808        C  0.58483576  0.20412295  0.20785347    -0.14800
H809        H  0.63119647  0.21337368  0.17758403     0.11300
H810        H  0.64485201  0.23414801  0.29425077     0.11300
H811        H  0.58289025  0.21717411  0.30003115     0.11300
H812        H  0.56842500  0.19649907  0.18344744     0.11300
C813        C  0.04058641  0.12182233  0.14252802    -0.14800
C814        C  0.01620538  0.10562780  0.11356380     0.07300
C815        C  0.02731804  0.09573338  0.08166324    -0.14800
C816        C  0.06186154  0.10193021  0.07863378    -0.14800
C817        C  0.08631997  0.11804855  0.10748651     0.07300
C818        C  0.07532013  0.12788837  0.13955893    -0.14800
H819        H  0.03291523  0.12998656  0.16737396     0.11300
H820        H  0.00944818  0.08354265  0.05863585     0.11300
H821        H  0.06925532  0.09376135  0.05359656     0.11300
H822        H  0.09337139  0.13987950  0.16248547     0.11300
C823        C  0.81053024  0.14075250  0.15004919    -0.14800
C824        C  0.84443493  0.14860605  0.16192685     0.07300
C825        C  0.86537313  0.18048013  0.18176845    -0.14800
C826        C  0.85263753  0.20365442  0.18975194    -0.14800
C827        C  0.81849445  0.19546627  0.17837519     0.07300
C828        C  0.79770179  0.16375928  0.15827848    -0.14800
H829        H  0.79369942  0.11662980  0.13460360     0.11300
H830        H  0.89169923  0.18757387  0.19127062     0.11300
H831        H  0.86930848  0.22767767  0.20541144     0.11300
H832        H  0.77131088  0.15658403  0.14890983     0.11300
C833        C  0.75955680  0.40345888  0.27791687    -0.14800
C834        C  0.76867471  0.42382095  0.24562609     0.07300
C835        C  0.78610697  0.41663833  0.21729413    -0.14800
C836        C  0.79383734  0.38919896  0.22116021    -0.14800
C837        C  0.78363568  0.36822229  0.25307168     0.07300
C838        C  0.76672343  0.37586778  0.28148456    -0.14800
H839        H  0.74634361  0.40853033  0.30038776     0.11300
H840        H  0.79396561  0.43234738  0.19241354     0.11300
H841        H  0.80652410  0.38350206  0.19871918     0.11300
H842        H  0.75841258  0.36001252  0.30628722     0.11300
C843        C  0.63126559  0.38908233  0.28080899    -0.14800
C844        C  0.63191060  0.41788713  0.26259174     0.07300
C845        C  0.60569033  0.41060295  0.23609474    -0.14800
C846        C  0.57998297  0.37534383  0.22747011    -0.14800
C847        C  0.57984570  0.34657627  0.24522166     0.07300
C848        C  0.60559705  0.35394706  0.27226543    -0.14800
H849        H  0.65115563  0.39361290  0.30123102     0.11300
H850        H  0.60564351  0.43208255  0.22123104     0.11300
H851        H  0.55995057  0.37065581  0.20717219     0.11300
H852        H  0.60587899  0.33253043  0.28702431     0.11300
C853        C  0.02981994  0.93238531  0.07687700    -0.14800
C854        C  0.02260015  0.90769099  0.10519224     0.07300
C855        C  0.04509755  0.91868843  0.13596142    -0.14800
C856        C  0.07381670  0.95374418  0.13851560    -0.14800
C857        C  0.08047488  0.97856792  0.11047207     0.07300
C858        C  0.05825947  0.96730828  0.07952465    -0.14800
H859        H  0.01307724  0.92498702  0.05274208     0.11300
H860        H  0.04015132  0.90045170  0.15835198     0.11300
H861        H  0.09075386  0.96140007  0.16250776     0.11300
H862        H  0.06288802  0.98544755  0.05712387     0.11300
C863        C  0.90407955  0.93915991  0.08147500    -0.14800
C864        C  0.89268080  0.91732974  0.11272633     0.07300
C865        C  0.87481363  0.92455712  0.14069452    -0.14800
C866        C  0.86833533  0.95284012  0.13733788    -0.14800
C867        C  0.87946945  0.97441324  0.10587422     0.07300
C868        C  0.89754575  0.96727169  0.07808311    -0.14800
H869        H  0.91762605  0.93423744  0.05924164     0.11300
H870        H  0.86542176  0.90809396  0.16501883     0.11300
H871        H  0.85487110  0.95795606  0.15950748     0.11300
H872        H  0.90689305  0.98353873  0.05361349     0.11300
C873        C  0.85143505  0.67430896  0.15555121    -0.14800
C874        C  0.84346362  0.70077295  0.16518365     0.07300
C875        C  0.81162243  0.69054591  0.18463182    -0.14800
C876        C  0.78867549  0.65483870  0.19463698    -0.14800
C877        C  0.79715275  0.62855735  0.18564466     0.07300
C878        C  0.82870533  0.63880520  0.16570388    -0.14800
H879        H  0.87554477  0.68105756  0.14053612     0.11300
H880        H  0.80449139  0.71019756  0.19238868     0.11300
H881        H  0.76471003  0.64795981  0.20999463     0.11300
H882        H  0.83610814  0.61933218  0.15803163     0.11300
C883        C  0.81671505  0.37067087  0.08537815    -0.14800
C884        C  0.80711678  0.35555293  0.05035371     0.07300
C885        C  0.78493061  0.31818105  0.04712310    -0.14800
C886        C  0.77413133  0.29620649  0.07827673    -0.14800
C887        C  0.78613657  0.31119796  0.11313151     0.07300
C888        C  0.80668338  0.34872734  0.11632898    -0.14800
H889        H  0.83398084  0.39920975  0.08867456     0.11300
H890        H  0.77708685  0.30585866  0.02026941     0.11300
H891        H  0.75834107  0.26753661  0.07489775     0.11300
H892        H  0.81629075  0.36114879  0.14284953     0.11300
C893        C  0.01789850  0.48359581  0.99617718    -0.14800
C894        C  0.02950817  0.51763108  0.01139433     0.07300
C895        C  0.00423797  0.52800856  0.01776099    -0.14800
C896        C  0.96849799  0.50537756  0.00826071    -0.14800
C897        C  0.95696250  0.47162015  0.99233735     0.07300
C898        C  0.98207169  0.46084171  0.98686157    -0.14800
H899        H  0.03659203  0.47455689  0.99116777     0.11300
H900        H  0.01216982  0.55392717  0.02944073     0.11300
H901        H  0.94994828  0.51463671  0.01303899     0.11300
H902        H  0.97420689  0.43510825  0.97474063     0.11300
C903        C  0.28863217  0.74291116  0.03164809    -0.14800
C904        C  0.31199240  0.75082368  0.06151716     0.07300
C905        C  0.29934252  0.72956961  0.09305069    -0.14800
C906        C  0.26432120  0.70135382  0.09490525    -0.14800
C907        C  0.24083757  0.69329412  0.06519203     0.07300
C908        C  0.25339752  0.71435282  0.03343194    -0.14800
H909        H  0.29748774  0.75892210  0.00698961     0.11300
H910        H  0.31634539  0.73504192  0.11672260     0.11300
H911        H  0.25575756  0.68568517  0.11980795     0.11300
H912        H  0.23618358  0.70855426  0.00988431     0.11300
C913        C  0.51794260  0.15690660  0.08922840    -0.14800
C914        C  0.54465917  0.18124893  0.06571561     0.07300
C915        C  0.55814274  0.21799965  0.07136107    -0.14800
C916        C  0.54339874  0.22977772  0.09885538    -0.14800
C917        C  0.51485507  0.20485998  0.12069080     0.07300
C918        C  0.50336498  0.16843627  0.11616879    -0.14800
H919        H  0.50694376  0.12847245  0.08552647     0.11300
H920        H  0.57835102  0.23733245  0.05315920     0.11300
H921        H  0.55327276  0.25804144  0.10201901     0.11300
H922        H  0.48215153  0.14833918  0.13292822     0.11300
C923        C  0.70863335  0.25193052  0.94568416    -0.14800
C924        C  0.67932667  0.25208911  0.92972759     0.07300
C925        C  0.68565690  0.27866453  0.90407427    -0.14800
C926        C  0.72036994  0.30490454  0.89517168    -0.14800
C927        C  0.74973329  0.30528902  0.91167204     0.07300
C928        C  0.74347350  0.27822455  0.93671230    -0.14800
H929        H  0.70467802  0.23123908  0.96480579     0.11300
H930        H  0.66373600  0.27919494  0.89074943     0.11300
H931        H  0.72412671  0.32546203  0.87595499     0.11300
H932        H  0.76543702  0.27794773  0.95023376     0.11300
C933        C  0.51856724  0.99439924  0.02787184    -0.14800
C934        C  0.48484382  0.96722821  0.01623983     0.07300
C935        C  0.46373628  0.97666986  0.99528813    -0.14800
C936        C  0.47626494  0.01212407  0.98550405    -0.14800
C937        C  0.51027629  0.03921639  0.99638676     0.07300
C938        C  0.53113694  0.02996783  0.01805051    -0.14800
H939        H  0.53542080  0.98816627  0.04420535     0.11300
H940        H  0.43745413  0.95656921  0.98607351     0.11300
H941        H  0.45935050  0.01821718  0.96909312     0.11300
H942        H  0.55740454  0.05018435  0.02717565     0.11300
C943        C  0.29013453  0.55860229  0.09423752    -0.14800
C944        C  0.29933345  0.54443709  0.06418748     0.07300
C945        C  0.27986392  0.53727454  0.03145952    -0.14800
C946        C  0.25204579  0.54454068  0.02884769    -0.14800
C947        C  0.24336928  0.55928981  0.05883873     0.07300
C948        C  0.26267991  0.56604107  0.09155823    -0.14800
H949        H  0.30454470  0.56453808  0.11990315     0.11300
H950        H  0.28658305  0.52680209  0.00768911     0.11300
H951        H  0.23736981  0.53862856  0.00336634     0.11300
H952        H  0.25636965  0.57676255  0.11541915     0.11300
C953        C  0.41949763  0.69570613  0.08995731    -0.14800
C954        C  0.43057970  0.68528808  0.05846290     0.07300
C955        C  0.44989249  0.71096163  0.03132643    -0.14800
C956        C  0.45815248  0.74636042  0.03587640    -0.14800
C957        C  0.44746688  0.75674826  0.06777285     0.07300
C958        C  0.42793576  0.73090349  0.09461248    -0.14800
H959        H  0.40492802  0.67682654  0.11159520     0.11300
H960        H  0.45908657  0.70384851  0.00684045     0.11300
H961        H  0.47264156  0.76545710  0.01437762     0.11300
H962        H  0.41882948  0.73772840  0.11935986     0.11300
C963        C  0.67803899  0.48028015  0.05815761    -0.14800
C964        C  0.64050283  0.45999860  0.06062578     0.07300
C965        C  0.62491375  0.44798854  0.09522394    -0.14800
C966        C  0.64630719  0.45837717  0.12679784    -0.14800
C967        C  0.68372435  0.48013274  0.12431721     0.07300
C968        C  0.69942938  0.48985001  0.08957141    -0.14800
H969        H  0.69091116  0.48992525  0.03186757     0.11300
H970        H  0.59621569  0.43239986  0.09806227     0.11300
H971        H  0.63350788  0.45045277  0.15339239     0.11300
H972        H  0.72802957  0.50679483  0.08684301     0.11300
C973        C  0.54865640  0.29505227  0.97229364    -0.14800
C974        C  0.55574665  0.31567808  0.94043475     0.07300
C975        C  0.55339960  0.29967111  0.90609051    -0.14800
C976        C  0.54492664  0.26428327  0.90358981    -0.14800
C977        C  0.53837341  0.24375282  0.93532605     0.07300
C978        C  0.53997462  0.25933568  0.96974877    -0.14800
H979        H  0.54996052  0.30650984  0.99909591     0.11300
H980        H  0.55827173  0.31452838  0.88086959     0.11300
H981        H  0.54405744  0.25314544  0.87669453     0.11300
H982        H  0.53563824  0.24428192  0.99473865     0.11300
C983        C  0.70574207  0.43982790  0.89131195    -0.14800
C984        C  0.69611410  0.45412853  0.92063982     0.07300
C985        C  0.71492371  0.46177895  0.95385679    -0.14800
C986        C  0.74256813  0.45450876  0.95793456    -0.14800
C987        C  0.75212963  0.44008968  0.92855609     0.07300
C988        C  0.73367673  0.43321229  0.89509618    -0.14800
H989        H  0.69135425  0.43338468  0.86558026     0.11300
H990        H  0.70736592  0.47213294  0.97703110     0.11300
H991        H  0.75661073  0.46043257  0.98382430     0.11300
H992        H  0.74055246  0.42226067  0.87184007     0.11300
C993        C  0.49467476  0.47140553  0.01477094    -0.14800
C994        C  0.52614130  0.49228371  0.99450753     0.07300
C995        C  0.53404852  0.52632584  0.98298693    -0.14800
C996        C  0.51054925  0.53870551  0.99070483    -0.14800
C997        C  0.47870148  0.51743707  0.01034883     0.07300
C998        C  0.47136897  0.48382467  0.02265523    -0.14800
H999        H  0.48779203  0.44514310  0.02437933     0.11300
H1000       H  0.55797019  0.54307243  0.96730705     0.11300
H1001       H  0.51724897  0.56488512  0.98100852     0.11300
H1002       H  0.44734011  0.46681867  0.03806741     0.11300
C1003       C  0.17424211  0.95942695  0.03692503    -0.14800
C1004       C  0.18401005  0.96990405  0.00032534     0.07300
C1005       C  0.21195406  0.00475846  0.99330978    -0.14800
C1006       C  0.22449582  0.03039857  0.02134451    -0.14800
C1007       C  0.20982797  0.02114152  0.05677170     0.07300
C1008       C  0.18778270  0.98484098  0.06517063    -0.14800
H1009       H  0.15271123  0.93274394  0.04306411     0.11300
H1010       H  0.21984654  0.01364950  0.96533295     0.11300
H1011       H  0.24134435  0.05822260  0.01408795     0.11300
H1012       H  0.17587702  0.97697497  0.09217646     0.11300
C1013       C  0.97928418  0.80408570  0.95275520    -0.14800
C1014       C  0.01487775  0.81444767  0.96060790     0.07300
C1015       C  0.02280183  0.80573219  0.99493870    -0.14800
C1016       C  0.99689876  0.79182268  0.02254666    -0.14800
C1017       C  0.96289535  0.78732024  0.01656272     0.07300
C1018       C  0.95354531  0.79096666  0.98063241    -0.14800
H1019       H  0.97239507  0.81075674  0.92662423     0.11300
H1020       H  0.04998302  0.81343800  0.00173435     0.11300
H1021       H  0.00498643  0.78890927  0.04976281     0.11300
H1022       H  0.92758921  0.78754635  0.97495738     0.11300
C1023       C  0.22314798  0.68667744  0.91316438    -0.14800
C1024       C  0.19965243  0.69108224  0.89029374     0.07300
C1025       C  0.16339078  0.66439003  0.89036038    -0.14800
C1026       C  0.15049577  0.63527050  0.91380222    -0.14800
C1027       C  0.17332718  0.63156475  0.93795480     0.07300
C1028       C  0.20999761  0.65712521  0.93702176    -0.14800
H1029       H  0.25124513  0.70656091  0.91353347     0.11300
H1030       H  0.14448919  0.66625133  0.87263494     0.11300
H1031       H  0.12211512  0.61628449  0.91425486     0.11300
H1032       H  0.22801490  0.65539484  0.95617915     0.11300
C1033       C  0.13877003  0.80286494  0.82127091    -0.14800
C1034       C  0.17475092  0.81377123  0.82691057     0.07300
C1035       C  0.19748644  0.84800765  0.84157501    -0.14800
C1036       C  0.18446018  0.87067878  0.85062232    -0.14800
C1037       C  0.14831477  0.85954252  0.84548283     0.07300
C1038       C  0.12569860  0.82536200  0.83057126    -0.14800
H1039       H  0.12051422  0.77666945  0.81018410     0.11300
H1040       H  0.22543659  0.85733576  0.84607085     0.11300
H1041       H  0.20262120  0.89673920  0.86204766     0.11300
H1042       H  0.09767437  0.81576443  0.82623645     0.11300
C1043       C  0.12583002  0.08399080  0.88660232    -0.14800
C1044       C  0.10163476  0.08790864  0.90878459     0.07300
C1045       C  0.08401926  0.06365481  0.93731460    -0.14800
C1046       C  0.08976457  0.03544516  0.94322911    -0.14800
C1047       C  0.11358401  0.03098865  0.92095827     0.07300
C1048       C  0.13201286  0.05580236  0.89287376    -0.14800
H1049       H  0.14034805  0.10301306  0.86505691     0.11300
H1050       H  0.06554540  0.06646482  0.95505161     0.11300
H1051       H  0.07509882  0.01677783  0.96500486     0.11300
H1052       H  0.15039728  0.05286153  0.87520359     0.11300
C1053       C  0.19036284  0.22604277  0.99628232    -0.14800
C1054       C  0.18222542  0.20988839  0.96147993     0.07300
C1055       C  0.19315477  0.18526415  0.95298960    -0.14800
C1056       C  0.20558400  0.17213009  0.98071682    -0.14800
C1057       C  0.20797982  0.18405903  0.01709197     0.07300
C1058       C  0.20349972  0.21348521  0.02379208    -0.14800
H1059       H  0.18244321  0.24523230  0.00352480     0.11300
H1060       H  0.18720960  0.17226309  0.92640136     0.11300
H1061       H  0.20930002  0.14985303  0.97445836     0.11300
H1062       H  0.20565299  0.22380471  0.05135203     0.11300
C1063       C  0.99300895  0.21579482  0.99888413    -0.14800
C1064       C  0.02718869  0.22087214  0.00464586     0.07300
C1065       C  0.03827941  0.22112679  0.04088227    -0.14800
C1066       C  0.01358735  0.20974011  0.06969948    -0.14800
C1067       C  0.97740995  0.19665816  0.06220566     0.07300
C1068       C  0.96808039  0.20336362  0.02751689    -0.14800
H1069       H  0.98368446  0.21551372  0.97130058     0.11300
H1070       H  0.06456583  0.22521344  0.04618147     0.11300
H1071       H  0.02154196  0.20486458  0.09616990     0.11300
H1072       H  0.94035080  0.19350294  0.02101901     0.11300
C1073       C  0.29489345  0.49070954  0.92626076    -0.14800
C1074       C  0.29158251  0.51256487  0.90041702     0.07300
C1075       C  0.31798639  0.54903903  0.89939067    -0.14800
C1076       C  0.34805893  0.56276567  0.92268077    -0.14800
C1077       C  0.35223921  0.54004148  0.94697022     0.07300
C1078       C  0.32454984  0.50418621  0.94917512    -0.14800
H1079       H  0.27523457  0.46251403  0.92744963     0.11300
H1080       H  0.31654543  0.56631343  0.87901789     0.11300
H1081       H  0.36862651  0.59055887  0.92054601     0.11300
H1082       H  0.32615803  0.48597035  0.96816302     0.11300
C1083       C  0.18569001  0.34043691  0.81881982    -0.14800
C1084       C  0.17651857  0.36602996  0.82858829     0.07300
C1085       C  0.14387744  0.35452871  0.84689169    -0.14800
C1086       C  0.12140601  0.31850312  0.85587909    -0.14800
C1087       C  0.13110911  0.29310456  0.84697987     0.07300
C1088       C  0.16337237  0.30453877  0.82796407    -0.14800
H1089       H  0.21041215  0.34818129  0.80455192     0.11300
H1090       H  0.13575658  0.37344132  0.85462192     0.11300
H1091       H  0.09684249  0.31070119  0.87049693     0.11300
H1092       H  0.17168231  0.28573565  0.82037865     0.11300
C1093       C  0.23073164  0.60252370  0.74831669    -0.14800
C1094       C  0.21811489  0.58004425  0.77899705     0.07300
C1095       C  0.19897495  0.58647459  0.80619058    -0.14800
C1096       C  0.19293815  0.61506535  0.80280264    -0.14800
C1097       C  0.20580747  0.63758764  0.77207553     0.07300
C1098       C  0.22459686  0.63079323  0.74485895    -0.14800
H1099       H  0.24527618  0.59821976  0.72667767     0.11300
H1100       H  0.18847660  0.56931693  0.82994106     0.11300
H1101       H  0.17865516  0.61978658  0.82440857     0.11300
H1102       H  0.23514096  0.64766278  0.72090558     0.11300
C1103       C  0.94238850  0.07409985  0.89740169    -0.14800
C1104       C  0.96723124  0.08230577  0.92568001     0.07300
C1105       C  0.96485564  0.05428300  0.94702808    -0.14800
C1106       C  0.93841545  0.01894197  0.94013218    -0.14800
C1107       C  0.91387114  0.01066269  0.91147074     0.07300
C1108       C  0.91615287  0.03872498  0.89027278    -0.14800
H1109       H  0.94376372  0.09493813  0.88010915     0.11300
H1110       H  0.98375066  0.05961088  0.96885847     0.11300
H1111       H  0.93706124  0.99813447  0.95747979     0.11300
H1112       H  0.89726417  0.03346126  0.86846748     0.11300
C1113       C  0.91581519  0.87076599  0.87558337    -0.14800
C1114       C  0.90002195  0.86718424  0.91025643     0.07300
C1115       C  0.92029450  0.87206647  0.94183086    -0.14800
C1116       C  0.95592545  0.88155478  0.93894193    -0.14800
C1117       C  0.97238118  0.88672323  0.90437222     0.07300
C1118       C  0.95176203  0.88055975  0.87265612    -0.14800
H1119       H  0.90086035  0.86761723  0.85076279     0.11300
H1120       H  0.90883461  0.86945974  0.96888161     0.11300
H1121       H  0.97069839  0.88529374  0.96402992     0.11300
H1122       H  0.96349802  0.88380585  0.84567818     0.11300
C1123       C  0.77443623  0.97014001  0.99224801    -0.14800
C1124       C  0.79164975  0.97841945  0.95808853     0.07300
C1125       C  0.81700461  0.01417269  0.95043710    -0.14800
C1126       C  0.82930650  0.03987349  0.97846652    -0.14800
C1127       C  0.81581916  0.03021868  0.01432812     0.07300
C1128       C  0.78606099  0.99595744  0.02000183    -0.14800
H1129       H  0.75520502  0.94269631  0.99897054     0.11300
H1130       H  0.83118071  0.02111180  0.92450833     0.11300
H1131       H  0.85206848  0.06601996  0.97301514     0.11300
H1132       H  0.77471671  0.98759137  0.04714433     0.11300
C1133       C  0.77996633  0.77935211  0.99778222    -0.14800
C1134       C  0.77495661  0.80874484  0.00166284     0.07300
C1135       C  0.77519153  0.82156411  0.03724293    -0.14800
C1136       C  0.78700981  0.80999749  0.06698122    -0.14800
C1137       C  0.79956748  0.78630882  0.06116765     0.07300
C1138       C  0.79253353  0.76842740  0.02733060    -0.14800
H1139       H  0.77936855  0.76830839  0.97091901     0.11300
H1140       H  0.77080522  0.84373253  0.04134886     0.11300
H1141       H  0.79218046  0.82423744  0.09280251     0.11300
H1142       H  0.80195747  0.75003611  0.02215800     0.11300
C1143       C  0.44623857  0.77560023  0.90171819    -0.14800
C1144       C  0.48251550  0.78569036  0.90070212     0.07300
C1145       C  0.50578641  0.81082136  0.92620648    -0.14800
C1146       C  0.49378919  0.82693921  0.95093343    -0.14800
C1147       C  0.45804658  0.81863562  0.95095270     0.07300
C1148       C  0.43400287  0.79184354  0.92687935    -0.14800
H1149       H  0.42794315  0.75699663  0.88158287     0.11300
H1150       H  0.53390868  0.81944120  0.92569653     0.11300
H1151       H  0.51300908  0.84675784  0.96959343     0.11300
H1152       H  0.40625930  0.78457061  0.92647445     0.11300
C1153       C  0.38682291  0.63644470  0.74666144    -0.14800
C1154       C  0.40973807  0.64726872  0.77703498     0.07300
C1155       C  0.40288566  0.62256321  0.80523623    -0.14800
C1156       C  0.37380700  0.58775776  0.80297813    -0.14800
C1157       C  0.35109589  0.57693069  0.77239938     0.07300
C1158       C  0.35794048  0.60175700  0.74434954    -0.14800
H1159       H  0.39143727  0.65462888  0.72430922     0.11300
H1160       H  0.42016403  0.63000103  0.82894169     0.11300
H1161       H  0.36900487  0.56945815  0.82526435     0.11300
H1162       H  0.34086030  0.59450572  0.72049344     0.11300
C1163       C  0.65320128  0.85272378  0.81920622    -0.14800
C1164       C  0.62580645  0.81923287  0.83118073     0.07300
C1165       C  0.63476320  0.79891384  0.85403352    -0.14800
C1166       C  0.67008937  0.81142554  0.86422291    -0.14800
C1167       C  0.69759071  0.84463137  0.85184522     0.07300
C1168       C  0.68867096  0.86526415  0.82940068    -0.14800
H1169       H  0.64729991  0.86914510  0.80174476     0.11300
H1170       H  0.61443448  0.77308262  0.86405846     0.11300
H1171       H  0.67583169  0.79487224  0.88166383     0.11300
H1172       H  0.70913694  0.89107460  0.81947697     0.11300
C1173       C  0.39288246  0.76830370  0.74332878    -0.14800
C1174       C  0.41740715  0.78508500  0.77207987     0.07300
C1175       C  0.40602230  0.79478666  0.80396484    -0.14800
C1176       C  0.37091344  0.78779539  0.80693793    -0.14800
C1177       C  0.34640427  0.77075551  0.77818938     0.07300
C1178       C  0.35793549  0.76116479  0.74637883    -0.14800
H1179       H  0.40051056  0.76021934  0.71838988     0.11300
H1180       H  0.42406071  0.80733476  0.82679351     0.11300
H1181       H  0.36303164  0.79589083  0.83168558     0.11300
H1182       H  0.34005945  0.74846530  0.72346075     0.11300
C1183       C  0.88398435  0.88299153  0.73417065    -0.14800
C1184       C  0.87304722  0.84660675  0.73005476     0.07300
C1185       C  0.84892832  0.82223747  0.75551755    -0.14800
C1186       C  0.83471457  0.83335513  0.78338795    -0.14800
C1187       C  0.84384733  0.86929630  0.78669541     0.07300
C1188       C  0.86957031  0.89430732  0.76242845    -0.14800
H1189       H  0.90195505  0.90224001  0.71434603     0.11300
H1190       H  0.83981020  0.79405849  0.75285600     0.11300
H1191       H  0.81570425  0.81333302  0.80197150     0.11300
H1192       H  0.87745405  0.92220613  0.76439940     0.11300
C1193       C  0.84779372  0.65919566  0.68887939    -0.14800
C1194       C  0.81426959  0.63215574  0.67658543     0.07300
C1195       C  0.79362407  0.64175975  0.65510961    -0.14800
C1196       C  0.80623849  0.67741088  0.64599938    -0.14800
C1197       C  0.83985480  0.70444415  0.65809419     0.07300
C1198       C  0.86043667  0.69488272  0.67972946    -0.14800
H1199       H  0.86436775  0.65281050  0.70549752     0.11300
H1200       H  0.76761037  0.62169642  0.64520938     0.11300
H1201       H  0.78964648  0.68373643  0.62933285     0.11300
H1202       H  0.88645283  0.71498400  0.68958013     0.11300
C1203       C  0.87682132  0.54410392  0.81658748    -0.14800
C1204       C  0.84665420  0.54729152  0.82338003     0.07300
C1205       C  0.83413642  0.54357423  0.85959775    -0.14800
C1206       C  0.84748453  0.53096104  0.88688047    -0.14800
C1207       C  0.87281813  0.52107929  0.87800074     0.07300
C1208       C  0.88946913  0.53058749  0.84356788    -0.14800
H1209       H  0.88766831  0.54741033  0.78914915     0.11300
H1210       H  0.81128414  0.54627193  0.86591712     0.11300
H1211       H  0.83413095  0.52396715  0.91325262     0.11300
H1212       H  0.90921358  0.52350995  0.83608314     0.11300
C1213       C  0.69314206  0.56338742  0.81476957    -0.14800
C1214       C  0.68281765  0.54617423  0.78051190     0.07300
C1215       C  0.64639075  0.52283352  0.77390781    -0.14800
C1216       C  0.62210787  0.51109818  0.80313230    -0.14800
C1217       C  0.63388650  0.52345934  0.83899517     0.07300
C1218       C  0.66865639  0.55240680  0.84378719    -0.14800
H1219       H  0.72110904  0.58127763  0.82064006     0.11300
H1220       H  0.63772253  0.50889683  0.74788593     0.11300
H1221       H  0.59542947  0.48883472  0.79859587     0.11300
H1222       H  0.67857394  0.56244464  0.87106622     0.11300
C1223       C  0.95929067  0.11198374  0.75787304    -0.14800
C1224       C  0.97429904  0.12431929  0.72315441     0.07300
C1225       C  0.01179732  0.14433367  0.72000760    -0.14800
C1226       C  0.03376989  0.15345736  0.75093391    -0.14800
C1227       C  0.01866660  0.14353478  0.78589880     0.07300
C1228       C  0.98125718  0.12188178  0.78897174    -0.14800
H1229       H  0.93063802  0.09663818  0.76124263     0.11300
H1230       H  0.02418568  0.15428117  0.69361825     0.11300
H1231       H  0.06231760  0.17039607  0.74773039     0.11300
H1232       H  0.96888778  0.11387663  0.81574327     0.11300
C1233       C  0.88370139  0.96520997  0.56751850    -0.14800
C1234       C  0.88630978  0.98142104  0.60181212     0.07300
C1235       C  0.87838486  0.96065692  0.63367839    -0.14800
C1236       C  0.86925902  0.92483293  0.63132919    -0.14800
C1237       C  0.86810334  0.90918547  0.59709238     0.07300
C1238       C  0.87488688  0.92963395  0.56521181    -0.14800
H1239       H  0.88893264  0.98013803  0.54228957     0.11300
H1240       H  0.87959330  0.97216217  0.66042538     0.11300
H1241       H  0.86448812  0.90980796  0.65641997     0.11300
H1242       H  0.87413130  0.91834379  0.53843649     0.11300
C1243       C  0.78703048  0.37883113  0.69958743    -0.14800
C1244       C  0.76711063  0.35330260  0.72663743     0.07300
C1245       C  0.75491762  0.36385509  0.75720109    -0.14800
C1246       C  0.76227592  0.39885875  0.76066683    -0.14800
C1247       C  0.78190967  0.42440790  0.73357768     0.07300
C1248       C  0.79428336  0.41402648  0.70297340    -0.14800
H1249       H  0.79732446  0.37172683  0.67596738     0.11300
H1250       H  0.73987795  0.34511916  0.77878781     0.11300
H1251       H  0.75201331  0.40568471  0.78452606     0.11300
H1252       H  0.80919083  0.43293353  0.68147422     0.11300
C1253       C  0.84472011  0.20536010  0.66132542    -0.14800
C1254       C  0.81218583  0.18328058  0.67951269     0.07300
C1255       C  0.80366027  0.14859815  0.68906244    -0.14800
C1256       C  0.82658354  0.13600895  0.67993780    -0.14800
C1257       C  0.85885926  0.15782669  0.66125360     0.07300
C1258       C  0.86783719  0.19282886  0.65242159    -0.14800
H1259       H  0.85229187  0.23234951  0.65374831     0.11300
H1260       H  0.77895116  0.13089337  0.70311172     0.11300
H1261       H  0.81878604  0.10892402  0.68735892     0.11300
H1262       H  0.89238876  0.21032355  0.63801613     0.11300
C1263       C  0.70322945  0.16451556  0.86231888    -0.14800
C1264       C  0.69242433  0.15208824  0.82628931     0.07300
C1265       C  0.65756075  0.12328662  0.82075477    -0.14800
C1266       C  0.63247246  0.11180304  0.84913801    -0.14800
C1267       C  0.64204710  0.12821582  0.88372570     0.07300
C1268       C  0.67823558  0.15227434  0.89095655    -0.14800
H1269       H  0.72988740  0.18646922  0.86764138     0.11300
H1270       H  0.64827789  0.11278986  0.79346196     0.11300
H1271       H  0.60469227  0.09358932  0.84273612     0.11300
H1272       H  0.68621028  0.16577668  0.91725747     0.11300
C1273       C  0.87209197  0.35164535  0.76923430    -0.14800
C1274       C  0.85786620  0.31545056  0.77776313     0.07300
C1275       C  0.86538000  0.30658074  0.81228497    -0.14800
C1276       C  0.88049597  0.33251352  0.83991701    -0.14800
C1277       C  0.88694620  0.36714087  0.83351205     0.07300
C1278       C  0.88616726  0.37737897  0.79714430    -0.14800
H1279       H  0.86656213  0.35923144  0.74288408     0.11300
H1280       H  0.85465907  0.27884835  0.81954606     0.11300
H1281       H  0.88097098  0.32384281  0.86761870     0.11300
H1282       H  0.89121845  0.40397178  0.79137572     0.11300
C1283       C  0.11534703  0.98422230  0.71822856    -0.14800
C1284       C  0.13746078  0.02155274  0.72187716     0.07300
C1285       C  0.14670080  0.03628547  0.75710529    -0.14800
C1286       C  0.13642980  0.01396583  0.78781613    -0.14800
C1287       C  0.11615970  0.97645370  0.78409922     0.07300
C1288       C  0.10442178  0.96188030  0.74906885    -0.14800
H1289       H  0.10775011  0.97219743  0.69126520     0.11300
H1290       H  0.16386147  0.06479618  0.76074912     0.11300
H1291       H  0.14563116  0.02606999  0.81454973     0.11300
H1292       H  0.08879672  0.93324588  0.74529386     0.11300
C1293       C  0.05256229  0.96840549  0.55895744    -0.14800
C1294       C  0.08036305  0.97180246  0.58132750     0.07300
C1295       C  0.07219525  0.94774582  0.61037891    -0.14800
C1296       C  0.03695391  0.92142496  0.61748769    -0.14800
C1297       C  0.00906157  0.91822858  0.59539167     0.07300
C1298       C  0.01735786  0.94180304  0.56577004    -0.14800
H1299       H  0.05795579  0.98667033  0.53646996     0.11300
H1300       H  0.09294552  0.94990369  0.62833878     0.11300
H1301       H  0.03165678  0.90327869  0.64005338     0.11300
H1302       H  0.99665927  0.93965772  0.54770310     0.11300
C1303       C  0.05080708  0.13497318  0.61725627    -0.14800
C1304       C  0.02932810  0.12180625  0.58576341     0.07300
C1305       C  0.03633427  0.10216482  0.55994404    -0.14800
C1306       C  0.06382203  0.09526457  0.56576120    -0.14800
C1307       C  0.08456714  0.10731936  0.59781874     0.07300
C1308       C  0.07799140  0.12738340  0.62352402    -0.14800
H1309       H  0.04584149  0.15014855  0.63752108     0.11300
H1310       H  0.02016092  0.09163668  0.53548439     0.11300
H1311       H  0.06864241  0.08008427  0.54523028     0.11300
H1312       H  0.09418997  0.13765966  0.64797983     0.11300
C1313       C  0.59872325  0.36418516  0.76013975    -0.14800
C1314       C  0.57341768  0.35738870  0.73261654     0.07300
C1315       C  0.58394761  0.37968703  0.70173708    -0.14800
C1316       C  0.61889497  0.40849365  0.69887553    -0.14800
C1317       C  0.64397015  0.41538000  0.72673812     0.07300
C1318       C  0.63347204  0.39267035  0.75719649    -0.14800
H1319       H  0.59180621  0.34738162  0.78416893     0.11300
H1320       H  0.56528703  0.37484808  0.67980751     0.11300
H1321       H  0.62611276  0.42562927  0.67508810     0.11300
H1322       H  0.65193902  0.39722554  0.77924558     0.11300
C1323       C  0.58384515  0.20664629  0.70005710    -0.14800
C1324       C  0.57630207  0.22377775  0.72861789     0.07300
C1325       C  0.59749862  0.23393112  0.76032900    -0.14800
C1326       C  0.62579992  0.22778472  0.76329330    -0.14800
C1327       C  0.63402635  0.21147936  0.73454606     0.07300
C1328       C  0.61254697  0.20066561  0.70293427    -0.14800
H1329       H  0.56767942  0.19798220  0.67547916     0.11300
H1330       H  0.59215100  0.24653557  0.78320084     0.11300
H1331       H  0.64162873  0.23643490  0.78810795     0.11300
H1332       H  0.61833203  0.18828059  0.68017186     0.11300
C1333       C  0.34930731  0.14851632  0.66585218    -0.14800
C1334       C  0.36102460  0.18185717  0.68283178     0.07300
C1335       C  0.33571642  0.19183837  0.69096986    -0.14800
C1336       C  0.29985233  0.16948753  0.68157154    -0.14800
C1337       C  0.28824264  0.13643147  0.66394997     0.07300
C1338       C  0.31340556  0.12607599  0.65662632    -0.14800
H1339       H  0.36797961  0.13977839  0.65933642     0.11300
H1340       H  0.34368638  0.21720540  0.70405033     0.11300
H1341       H  0.28125535  0.17839382  0.68779280     0.11300
H1342       H  0.30552051  0.10092808  0.64309273     0.11300
C1343       C  0.45882912  0.33819604  0.82012095    -0.14800
C1344       C  0.45428424  0.30419101  0.82636553     0.07300
C1345       C  0.45714480  0.29480201  0.86255384    -0.14800
C1346       C  0.46949210  0.32049347  0.89058798    -0.14800
C1347       C  0.47985905  0.35609764  0.88267289     0.07300
C1348       C  0.47178044  0.36399598  0.84795880    -0.14800
H1349       H  0.45651225  0.34631474  0.79271967     0.11300
H1350       H  0.45357035  0.26879275  0.86845762     0.11300
H1351       H  0.47562664  0.31360042  0.91699898     0.11300
H1352       H  0.47946095  0.39118877  0.84109132     0.11300
C1353       C  0.47297237  0.12551085  0.78011599    -0.14800
C1354       C  0.44889849  0.13755230  0.78607558     0.07300
C1355       C  0.43254405  0.13187214  0.82063056    -0.14800
C1356       C  0.44512691  0.12105096  0.85028027    -0.14800
C1357       C  0.47457191  0.11627435  0.84577013     0.07300
C1358       C  0.48616622  0.11542661  0.80988444    -0.14800
H1359       H  0.48621495  0.12983337  0.75381162     0.11300
H1360       H  0.41401667  0.14107152  0.82598501     0.11300
H1361       H  0.43509585  0.12138000  0.87742460     0.11300
H1362       H  0.50843293  0.11132727  0.80530529     0.11300
C1363       C  0.77673338  0.43726034  0.56924997    -0.14800
C1364       C  0.81304892  0.44751037  0.56961467     0.07300
C1365       C  0.83556609  0.47275549  0.59541697    -0.14800
C1366       C  0.82293040  0.48931270  0.61867986    -0.14800
C1367       C  0.78730233  0.48122377  0.61688737     0.07300
C1368       C  0.76382960  0.45390564  0.59298881    -0.14800
H1369       H  0.75905018  0.41844443  0.54888409     0.11300
H1370       H  0.86368605  0.48137154  0.59598165     0.11300
H1371       H  0.84162700  0.50946812  0.63743549     0.11300
H1372       H  0.73616202  0.44676345  0.59135648     0.11300
C1373       C  0.86962759  0.50561328  0.31741670    -0.14800
C1374       C  0.87157555  0.51663964  0.35406862     0.07300
C1375       C  0.86767433  0.54629236  0.36154423    -0.14800
C1376       C  0.85505383  0.55971963  0.33444658    -0.14800
C1377       C  0.84695283  0.54420708  0.29936261     0.07300
C1378       C  0.85779543  0.51967362  0.29009697    -0.14800
H1379       H  0.87305328  0.48326314  0.31058358     0.11300
H1380       H  0.86967560  0.55601765  0.38935297     0.11300
H1381       H  0.84727872  0.57889877  0.34222847     0.11300
H1382       H  0.85198268  0.50726737  0.26320694     0.11300
C1383       C  0.85504741  0.31862657  0.39707315    -0.14800
C1384       C  0.87607797  0.35531393  0.38996645     0.07300
C1385       C  0.89166915  0.36623175  0.35510614    -0.14800
C1386       C  0.88087870  0.34158009  0.32622691    -0.14800
C1387       C  0.85361868  0.30609561  0.33182677     0.07300
C1388       C  0.84326218  0.29415002  0.36797633    -0.14800
H1389       H  0.84249797  0.30951412  0.42365147     0.11300
H1390       H  0.90781325  0.39439423  0.34889609     0.11300
H1391       H  0.88930331  0.35158896  0.29865120     0.11300
H1392       H  0.82230802  0.26693427  0.37305380     0.11300
C1393       C  0.00319386  0.47551005  0.52767252    -0.14800
C1394       C  0.03011298  0.50929818  0.51604042     0.07300
C1395       C  0.02054713  0.53015810  0.49480941    -0.14800
C1396       C  0.98483277  0.51753364  0.48569340    -0.14800
C1397       C  0.95794414  0.48377721  0.49760124     0.07300
C1398       C  0.96767163  0.46293570  0.51857626    -0.14800
H1399       H  0.00950398  0.45866648  0.54393897     0.11300
H1400       H  0.04063532  0.55633215  0.48532668     0.11300
H1401       H  0.97830771  0.53420267  0.46940661     0.11300
H1402       H  0.94777837  0.43672190  0.52816324     0.11300
C1403       C  0.10691957  0.48710331  0.70218271    -0.14800
C1404       C  0.10675994  0.47449425  0.66652488     0.07300
C1405       C  0.11093925  0.44459863  0.66249821    -0.14800
C1406       C  0.12263039  0.43282492  0.69209808    -0.14800
C1407       C  0.12965129  0.45039166  0.72612458     0.07300
C1408       C  0.11780373  0.47466760  0.73196142    -0.14800
H1409       H  0.10317791  0.50966658  0.70639860     0.11300
H1410       H  0.11037464  0.43370879  0.63555762     0.11300
H1411       H  0.13149501  0.41399421  0.68687888     0.11300
H1412       H  0.12297429  0.48870662  0.75791127     0.11300
C1413       C  0.14475742  0.67835155  0.61596874    -0.14800
C1414       C  0.12110292  0.64219294  0.62379425     0.07300
C1415       C  0.10464418  0.63311162  0.65834451    -0.14800
C1416       C  0.11580668  0.65874955  0.68624109    -0.14800
C1417       C  0.14435225  0.69367134  0.68026262     0.07300
C1418       C  0.15667062  0.70391354  0.64413491    -0.14800
H1419       H  0.15822067  0.68596693  0.58966558     0.11300
H1420       H  0.08665341  0.60537591  0.66517050     0.11300
H1421       H  0.10534026  0.64989833  0.71360205     0.11300
H1422       H  0.17838605  0.73061054  0.63845774     0.11300
C1423       C  0.55241531  0.34799526  0.58117767    -0.14800
C1424       C  0.52849258  0.35162484  0.55820759     0.07300
C1425       C  0.49248933  0.32421340  0.55827825    -0.14800
C1426       C  0.48020768  0.29536125  0.58214999    -0.14800
C1427       C  0.50345421  0.29267312  0.60665205     0.07300
C1428       C  0.53992936  0.31876891  0.60537593    -0.14800
H1429       H  0.58036200  0.36833531  0.58145977     0.11300
H1430       H  0.47332216  0.32542150  0.54039027     0.11300
H1431       H  0.45195205  0.27592042  0.58281783     0.11300
H1432       H  0.55827776  0.31783006  0.62469231     0.11300
C1433       C  0.68579044  0.41643298  0.42292482    -0.14800
C1434       C  0.67656528  0.43225633  0.45125376     0.07300
C1435       C  0.70274186  0.45386420  0.47710691    -0.14800
C1436       C  0.73759869  0.46013679  0.47406678    -0.14800
C1437       C  0.74695371  0.44508994  0.44498427     0.07300
C1438       C  0.72042583  0.42279330  0.41980038    -0.14800
H1439       H  0.66635660  0.39953547  0.40260776     0.11300
H1440       H  0.69653722  0.46661133  0.49916521     0.11300
H1441       H  0.75722386  0.47693738  0.49426955     0.11300
H1442       H  0.72632251  0.41005619  0.39747556     0.11300
C1443       C  0.63171889  0.53466857  0.36533424    -0.14800
C1444       C  0.64021261  0.52638694  0.39964435     0.07300
C1445       C  0.67623540  0.53976079  0.40820502    -0.14800
C1446       C  0.70193177  0.55338761  0.38032557    -0.14800
C1447       C  0.69186030  0.55477274  0.34402858     0.07300
C1448       C  0.65764519  0.54940626  0.33774990    -0.14800
H1449       H  0.60412363  0.52463712  0.35807594     0.11300
H1450       H  0.68352032  0.53368043  0.43444196     0.11300
H1451       H  0.72823667  0.55769848  0.38604041     0.11300
H1452       H  0.64913062  0.55045911  0.31012676     0.11300
C1453       C  0.44941544  0.32722707  0.35014287    -0.14800
C1454       C  0.47940678  0.36155533  0.34552090     0.07300
C1455       C  0.49372280  0.37204088  0.31007112    -0.14800
C1456       C  0.48215031  0.34693968  0.28152472    -0.14800
C1457       C  0.45678465  0.31101175  0.28832549     0.07300
C1458       C  0.43857907  0.30198221  0.32190406    -0.14800
H1459       H  0.43737264  0.31827660  0.37693086     0.11300
H1460       H  0.51662622  0.39828960  0.30541598     0.11300
H1461       H  0.49699990  0.35441367  0.25599577     0.11300
H1462       H  0.41929287  0.27437556  0.32792737     0.11300
C1463       C  0.45759014  0.49123089  0.49165692    -0.14800
C1464       C  0.47935996  0.52392503  0.50982912     0.07300
C1465       C  0.51423328  0.53297270  0.51916857    -0.14800
C1466       C  0.52672182  0.50962043  0.51131986    -0.14800
C1467       C  0.50479141  0.47669270  0.49363981     0.07300
C1468       C  0.47018743  0.46801691  0.48351908    -0.14800
H1469       H  0.43060859  0.48339474  0.48385844     0.11300
H1470       H  0.53171721  0.55783365  0.53318543     0.11300
H1471       H  0.55365506  0.51740141  0.51924886     0.11300
H1472       H  0.45261345  0.44303971  0.46974036     0.11300
C1473       C  0.28864387  0.54724584  0.60379089    -0.14800
C1474       C  0.30515848  0.55358019  0.56913247     0.07300
C1475       C  0.28451129  0.54785931  0.53755604    -0.14800
C1476       C  0.24853071  0.53766050  0.54071165    -0.14800
C1477       C  0.23272497  0.53323918  0.57547959     0.07300
C1478       C  0.25290614  0.53737036  0.60692042    -0.14800
H1479       H  0.30345491  0.55039113  0.62871068     0.11300
H1480       H  0.29629240  0.55191973  0.51050547     0.11300
H1481       H  0.23359357  0.53504325  0.51602572     0.11300
H1482       H  0.24131235  0.53398095  0.63401494     0.11300
C1483       C  0.54508305  0.67304269  0.65712575    -0.14800
C1484       C  0.51756343  0.63772627  0.66290119     0.07300
C1485       C  0.50694119  0.62627875  0.69918830    -0.14800
C1486       C  0.51879772  0.65105996  0.72808382    -0.14800
C1487       C  0.54047069  0.68764806  0.72078167     0.07300
C1488       C  0.55611431  0.69798861  0.68582371    -0.14800
H1489       H  0.55368245  0.68273561  0.62949132     0.11300
H1490       H  0.48573140  0.59921910  0.70446022     0.11300
H1491       H  0.50608489  0.64231593  0.75464108     0.11300
H1492       H  0.57270790  0.72604480  0.67937256     0.11300
C1493       C  0.33174627  0.46280228  0.68952044    -0.14800
C1494       C  0.29705586  0.45625546  0.68304543     0.07300
C1495       C  0.28699616  0.45744961  0.64668620    -0.14800
C1496       C  0.31248540  0.47006874  0.61852689    -0.14800
C1497       C  0.34849794  0.48240011  0.62651816     0.07300
C1498       C  0.35730199  0.47606625  0.66158378    -0.14800
H1499       H  0.34044704  0.46189861  0.71708980     0.11300
H1500       H  0.26046934  0.45234081  0.64065232     0.11300
H1501       H  0.30488153  0.47480125  0.59180385     0.11300
H1502       H  0.38481275  0.48528629  0.66851830     0.11300
C1503       C  0.45188616  0.74745736  0.54748915    -0.14800
C1504       C  0.43791277  0.75710193  0.57720908     0.07300
C1505       C  0.43175850  0.73896468  0.61073391    -0.14800
C1506       C  0.43757524  0.71048953  0.61392930    -0.14800
C1507       C  0.45027221  0.69999761  0.58390307     0.07300
C1508       C  0.45834404  0.71920815  0.55093693    -0.14800
H1509       H  0.45751304  0.76150299  0.52164036     0.11300
H1510       H  0.42143987  0.74611039  0.63432328     0.11300
H1511       H  0.43125986  0.69602543  0.63959237     0.11300
H1512       H  0.46789333  0.71122435  0.52734519     0.11300
C1513       C  0.29997541  0.71929641  0.60867117    -0.14800
C1514       C  0.30007785  0.74836382  0.59162876     0.07300
C1515       C  0.27290068  0.74132558  0.56641326    -0.14800
C1516       C  0.24631405  0.70619003  0.55853113    -0.14800
C1517       C  0.24610276  0.67719256  0.57581068     0.07300
C1518       C  0.27329376  0.68422953  0.60097972    -0.14800
H1519       H  0.32076221  0.72357548  0.62781054     0.11300
H1520       H  0.27247440  0.76294255  0.55225578     0.11300
H1521       H  0.22541686  0.70180315  0.53950129     0.11300
H1522       H  0.27377973  0.66260692  0.61507383     0.11300
C1523       C  0.52268321  0.89346493  0.66323526    -0.14800
C1524       C  0.51432104  0.87753095  0.62836689     0.07300
C1525       C  0.52536143  0.85309764  0.61926768    -0.14800
C1526       C  0.53795881  0.83974433  0.64656088    -0.14800
C1527       C  0.54053878  0.85139754  0.68303714     0.07300
C1528       C  0.53617331  0.88082686  0.69025943    -0.14800
H1529       H  0.51469532  0.91250276  0.67092236     0.11300
H1530       H  0.51929049  0.84030360  0.59256941     0.11300
H1531       H  0.54157419  0.81747256  0.63992698     0.11300
H1532       H  0.53852148  0.89096460  0.71793295     0.11300
C1533       C  0.34295331  0.87482196  0.73524969    -0.14800
C1534       C  0.30682353  0.86051354  0.72652311     0.07300
C1535       C  0.29793589  0.86704492  0.69156719    -0.14800
C1536       C  0.32373172  0.88096683  0.66385065    -0.14800
C1537       C  0.35819381  0.88726288  0.67074207     0.07300
C1538       C  0.36852458  0.88756095  0.70727558    -0.14800
H1539       H  0.35050880  0.87006841  0.76199687     0.11300
H1540       H  0.27023871  0.85621736  0.68418369     0.11300
H1541       H  0.31504714  0.88066476  0.63596501     0.11300
H1542       H  0.39502006  0.89257673  0.71336156     0.11300
C1543       C  0.63621628  0.15200090  0.58513380    -0.14800
C1544       C  0.62790054  0.17437047  0.56531528     0.07300
C1545       C  0.64902654  0.21154714  0.57084129    -0.14800
C1546       C  0.67861841  0.22581840  0.59488912    -0.14800
C1547       C  0.68751134  0.20307210  0.61358811     0.07300
C1548       C  0.66531590  0.16599657  0.60873063    -0.14800
H1549       H  0.62066102  0.12332008  0.58152929     0.11300
H1550       H  0.64366209  0.22952373  0.55540402     0.11300
H1551       H  0.69476254  0.25444523  0.59836014     0.11300
H1552       H  0.67056323  0.14734082  0.62297988     0.11300
C1553       C  0.70961265  0.24916334  0.46922887    -0.14800
C1554       C  0.68702754  0.23892823  0.43856755     0.07300
C1555       C  0.69376280  0.26428093  0.41118251    -0.14800
C1556       C  0.72201911  0.29908670  0.41447814    -0.14800
C1557       C  0.74455963  0.30951975  0.44510749     0.07300
C1558       C  0.73823019  0.28415495  0.47240890    -0.14800
H1559       H  0.70488802  0.23035848  0.49096658     0.11300
H1560       H  0.67683801  0.25747921  0.38724458     0.11300
H1561       H  0.72631975  0.31775319  0.39272964     0.11300
H1562       H  0.75539217  0.29130211  0.49618319     0.11300
C1563       C  0.54226484  0.25712872  0.47529821    -0.14800
C1564       C  0.55649848  0.24764786  0.44552067     0.07300
C1565       C  0.56312025  0.26650953  0.41244293    -0.14800
C1566       C  0.55554410  0.29391853  0.40906794    -0.14800
C1567       C  0.54115541  0.30334051  0.43867949     0.07300
C1568       C  0.53473252  0.28474558  0.47193301    -0.14800
H1569       H  0.53664630  0.24301343  0.50109813     0.11300
H1570       H  0.57359079  0.25968987  0.38875147     0.11300
H1571       H  0.56111325  0.30783406  0.38313763     0.11300
H1572       H  0.52437484  0.29185875  0.49550953     0.11300
C1573       C  0.51640302  0.00472583  0.48258848    -0.14800
C1574       C  0.50879609  0.03108652  0.49380181     0.07300
C1575       C  0.47726099  0.02058495  0.51389381    -0.14800
C1576       C  0.45434437  0.98472085  0.52317084    -0.14800
C1577       C  0.46256403  0.95857806  0.51278533     0.07300
C1578       C  0.49367890  0.96902806  0.49202039    -0.14800
H1579       H  0.54025619  0.01170446  0.46696988     0.11300
H1580       H  0.47041986  0.04015021  0.52284466     0.11300
H1581       H  0.43072087  0.97762841  0.53925862     0.11300
H1582       H  0.50079519  0.94959357  0.48331132     0.11300
C1583       C  0.62146722  0.12697534  0.31104349    -0.14800
C1584       C  0.63032700  0.12214923  0.34680262     0.07300
C1585       C  0.66440943  0.12684903  0.35280888    -0.14800
C1586       C  0.69065403  0.14163960  0.32554332    -0.14800
C1587       C  0.68307657  0.15106147  0.29140779     0.07300
C1588       C  0.64756734  0.14100799  0.28348042    -0.14800
H1589       H  0.59551087  0.12353870  0.30533442     0.11300
H1590       H  0.67218846  0.12315147  0.37987457     0.11300
H1591       H  0.71776004  0.14915086  0.33244659     0.11300
H1592       H  0.64095029  0.14831060  0.25755716     0.11300
C1593       C  0.45774930  0.10124683  0.35931787    -0.14800
C1594       C  0.46533655  0.11914511  0.39318148     0.07300
C1595       C  0.45452328  0.14425292  0.39878812    -0.14800
C1596       C  0.44407730  0.15696458  0.36889399    -0.14800
C1597       C  0.44337053  0.14385974  0.33334508     0.07300
C1598       C  0.44661938  0.11339429  0.32957656    -0.14800
H1599       H  0.46584865  0.08179212  0.35429024     0.11300
H1600       H  0.46019017  0.15857555  0.42460776     0.11300
H1601       H  0.44107275  0.17999713  0.37292976     0.11300
H1602       H  0.44559644  0.10211595  0.30273941     0.11300
C1603       C  0.17444421  0.14660167  0.25869860    -0.14800
C1604       C  0.15121891  0.11928934  0.23498839     0.07300
C1605       C  0.11438069  0.10651889  0.23773753    -0.14800
C1606       C  0.10147574  0.12247896  0.26252410    -0.14800
C1607       C  0.12536875  0.15154741  0.28450282     0.07300
C1608       C  0.16180203  0.16239146  0.28300176    -0.14800
H1609       H  0.20292052  0.15711284  0.25706998     0.11300
H1610       H  0.09596181  0.08592646  0.21918238     0.11300
H1611       H  0.07322139  0.11310286  0.26344044     0.11300
H1612       H  0.18106505  0.18398882  0.30008440     0.11300
C1613       C  0.98435800  0.19513933  0.44110643    -0.14800
C1614       C  0.02070274  0.21657271  0.44953563     0.07300
C1615       C  0.03017913  0.23199807  0.48469215    -0.14800
C1616       C  0.00457579  0.22061786  0.51263552    -0.14800
C1617       C  0.96948570  0.19306465  0.50583638     0.07300
C1618       C  0.95890824  0.18286763  0.46927735    -0.14800
H1619       H  0.97628352  0.18272993  0.41430624     0.11300
H1620       H  0.05803082  0.24848140  0.49196792     0.11300
H1621       H  0.01357523  0.22893571  0.54053180     0.11300
H1622       H  0.93201351  0.16172153  0.46325012     0.11300
C1623       C  0.22430773  0.19736715  0.51568384    -0.14800
C1624       C  0.20709675  0.18812539  0.54985885     0.07300
C1625       C  0.18207375  0.19858609  0.55801989    -0.14800
C1626       C  0.16952435  0.21149717  0.53023738    -0.14800
C1627       C  0.18249508  0.21487048  0.49422313     0.07300
C1628       C  0.21236994  0.21105356  0.48815881    -0.14800
H1629       H  0.24383810  0.18983574  0.50876869     0.11300
H1630       H  0.16829226  0.19179844  0.58416356     0.11300
H1631       H  0.14686867  0.21468513  0.53600649     0.11300
H1632       H  0.22349834  0.21402339  0.46089951     0.11300
C1633       C  0.18985611  0.49421942  0.42224195    -0.14800
C1634       C  0.20607425  0.51693163  0.39239660     0.07300
C1635       C  0.20896797  0.55071378  0.39254621    -0.14800
C1636       C  0.19515135  0.56125962  0.42185199    -0.14800
C1637       C  0.17719055  0.53763377  0.45083826     0.07300
C1638       C  0.17553656  0.50438857  0.45103778    -0.14800
H1639       H  0.18638144  0.46772046  0.42223617     0.11300
H1640       H  0.22044587  0.56823584  0.36916967     0.11300
H1641       H  0.19683217  0.58695479  0.42089426     0.11300
H1642       H  0.16224148  0.48569370  0.47318406     0.11300
C1643       C  0.13954521  0.34569262  0.31936129    -0.14800
C1644       C  0.17477747  0.37247305  0.32661521     0.07300
C1645       C  0.19739231  0.36295094  0.34463849    -0.14800
C1646       C  0.18531491  0.32758991  0.35462788    -0.14800
C1647       C  0.15034732  0.30068449  0.34665973     0.07300
C1648       C  0.12752263  0.31023794  0.32915307    -0.14800
H1649       H  0.12141332  0.35200396  0.30563284     0.11300
H1650       H  0.22469647  0.38286376  0.35093916     0.11300
H1651       H  0.20355594  0.32127842  0.36811491     0.11300
H1652       H  0.10025674  0.29023644  0.32282263     0.11300
C1653       C  0.29758143  0.44360385  0.17652707    -0.14800
C1654       C  0.30622964  0.46035711  0.21100765     0.07300
C1655       C  0.34222748  0.48474368  0.21895253    -0.14800
C1656       C  0.36782281  0.49697884  0.19092692    -0.14800
C1657       C  0.35783039  0.48432296  0.15484331     0.07300
C1658       C  0.32328906  0.45516127  0.14878988    -0.14800
H1659       H  0.27010080  0.42463520  0.16970331     0.11300
H1660       H  0.34971487  0.49820105  0.24529219     0.11300
H1661       H  0.39427968  0.51911066  0.19665780     0.11300
H1662       H  0.31471299  0.44433067  0.12146606     0.11300
C1663       C  0.10998055  0.45239847  0.17675909    -0.14800
C1664       C  0.13847440  0.44640925  0.17103581     0.07300
C1665       C  0.14958655  0.44617827  0.13479811    -0.14800
C1666       C  0.13716517  0.45818727  0.10598147    -0.14800
C1667       C  0.11455231  0.47173288  0.11339670     0.07300
C1668       C  0.09840243  0.46546967  0.14815632    -0.14800
H1669       H  0.10086650  0.45284489  0.20434579     0.11300
H1670       H  0.17143865  0.44156494  0.12954054     0.11300
H1671       H  0.15019796  0.46284605  0.07952169     0.11300
H1672       H  0.08100596  0.47580084  0.15464363     0.11300
C1673       C  0.99671729  0.83443828  0.27953818    -0.14800
C1674       C  0.02096315  0.87131863  0.28273720     0.07300
C1675       C  0.01387511  0.89479854  0.26287612    -0.14800
C1676       C  0.98427826  0.88132736  0.23891300    -0.14800
C1677       C  0.96128605  0.84423919  0.23474821     0.07300
C1678       C  0.96754628  0.82122688  0.25607565    -0.14800
H1679       H  0.00050114  0.81533300  0.29485467     0.11300
H1680       H  0.03162291  0.92334455  0.26510719     0.11300
H1681       H  0.98051405  0.89971758  0.22227074     0.11300
H1682       H  0.95048990  0.79257195  0.25346973     0.11300
C1683       C  0.12187265  0.04614722  0.36875103    -0.14800
C1684       C  0.10151267  0.02035663  0.39545151     0.07300
C1685       C  0.08905260  0.03079947  0.42589561    -0.14800
C1686       C  0.09666753  0.06591857  0.42964624    -0.14800
C1687       C  0.11688097  0.09178005  0.40299390     0.07300
C1688       C  0.12940150  0.08146065  0.37243064    -0.14800
H1689       H  0.13235187  0.03916614  0.34519538     0.11300
H1690       H  0.07363781  0.01188584  0.44720899     0.11300
H1691       H  0.08622071  0.07262439  0.45343740     0.11300
H1692       H  0.14468841  0.10053688  0.35119314     0.11300
C1693       C  0.20467853  0.01819252  0.43949644    -0.14800
C1694       C  0.19122923  0.98194987  0.44716104     0.07300
C1695       C  0.19813676  0.97266771  0.48178025    -0.14800
C1696       C  0.21171207  0.99794278  0.51016172    -0.14800
C1697       C  0.21763958  0.03246574  0.50433431     0.07300
C1698       C  0.21734495  0.04328013  0.46807638    -0.14800
H1699       H  0.19950686  0.02609725  0.41314488     0.11300
H1700       H  0.18788647  0.94487601  0.48843925     0.11300
H1701       H  0.21168433  0.98876157  0.53774530     0.11300
H1702       H  0.22193001  0.06977294  0.46271769     0.11300
C1703       C  0.03516159  0.83128345  0.52998344    -0.14800
C1704       C  0.02552981  0.81830045  0.49392496     0.07300
C1705       C  0.99109790  0.78890419  0.48787718    -0.14800
C1706       C  0.96517422  0.77738586  0.51546590    -0.14800
C1707       C  0.97351836  0.79428644  0.54984960     0.07300
C1708       C  0.00937692  0.81899022  0.55786737    -0.14800
H1709       H  0.06144653  0.85369406  0.53574799     0.11300
H1710       H  0.98273502  0.77789453  0.46058434     0.11300
H1711       H  0.93769763  0.75856539  0.50847478     0.11300
H1712       H  0.01644085  0.83284678  0.58401517     0.11300
C1713       C  0.34361362  0.80530629  0.38811059    -0.14800
C1714       C  0.30617027  0.78833556  0.39103435     0.07300
C1715       C  0.29052155  0.77911319  0.42585838    -0.14800
C1716       C  0.31206147  0.78929564  0.45721776    -0.14800
C1717       C  0.34961121  0.80834049  0.45433441     0.07300
C1718       C  0.36513047  0.81492243  0.41943636    -0.14800
H1719       H  0.35635887  0.81248506  0.36145165     0.11300
H1720       H  0.26187713  0.76618695  0.42892103     0.11300
H1721       H  0.29934713  0.78368493  0.48390848     0.11300
H1722       H  0.39383348  0.82961999  0.41636750     0.11300
C1723       C  0.20680011  0.62473219  0.29220076    -0.14800
C1724       C  0.22521802  0.65076914  0.26529305     0.07300
C1725       C  0.23583837  0.64109554  0.23284087    -0.14800
C1726       C  0.22869028  0.60637669  0.22750018    -0.14800
C1727       C  0.21034611  0.58026862  0.25427140     0.07300
C1728       C  0.19918342  0.58962041  0.28659821    -0.14800
H1729       H  0.19794347  0.63139057  0.31722912     0.11300
H1730       H  0.24999303  0.66053600  0.21150610     0.11300
H1731       H  0.23793663  0.60003407  0.20252678     0.11300
H1732       H  0.18563796  0.57010001  0.30801195     0.11300
C1733       C  0.20225693  0.85977608  0.31997106    -0.14800
C1734       C  0.19334252  0.82475204  0.32863178     0.07300
C1735       C  0.16092748  0.80279528  0.34707559    -0.14800
C1736       C  0.13784488  0.81523427  0.35612718    -0.14800
C1737       C  0.14631202  0.84994680  0.34678675     0.07300
C1738       C  0.17896110  0.87216567  0.32880044    -0.14800
H1739       H  0.22687509  0.87737619  0.30572564     0.11300
H1740       H  0.15313620  0.77568595  0.35438282     0.11300
H1741       H  0.11307791  0.79739929  0.37001327     0.11300
H1742       H  0.18650760  0.89917847  0.32135729     0.11300
C1743       C  0.14003251  0.70013087  0.17652885    -0.14800
C1744       C  0.14769007  0.69206397  0.21133389     0.07300
C1745       C  0.13662341  0.65632124  0.21948656    -0.14800
C1746       C  0.12380845  0.63047181  0.19165272    -0.14800
C1747       C  0.12115164  0.63984462  0.15543832     0.07300
C1748       C  0.12648405  0.67413562  0.14891450    -0.14800
H1749       H  0.14826576  0.72742183  0.16949415     0.11300
H1750       H  0.14243987  0.64929368  0.24599512     0.11300
H1751       H  0.11968828  0.60428551  0.19772807     0.11300
H1752       H  0.12434203  0.68224836  0.12144529     0.11300
C1753       C  0.33872716  0.88885816  0.18019587    -0.14800
C1754       C  0.30347006  0.86140705  0.17403682     0.07300
C1755       C  0.29235400  0.85063378  0.13768991    -0.14800
C1756       C  0.31750740  0.86163962  0.10934896    -0.14800
C1757       C  0.35395934  0.88273591  0.11738323     0.07300
C1758       C  0.36402684  0.89903957  0.15208570    -0.14800
H1759       H  0.34808861  0.89774428  0.20788767     0.11300
H1760       H  0.26527932  0.82961333  0.13213699     0.11300
H1761       H  0.30901813  0.84855499  0.08289324     0.11300
H1762       H  0.39199346  0.91532831  0.15898303     0.11300
C1763       C  0.88127579  0.99231842  0.27291382    -0.14800
C1764       C  0.84495872  0.96557833  0.27282844     0.07300
C1765       C  0.82240958  0.96760411  0.24690924    -0.14800
C1766       C  0.83504728  0.99646701  0.22303689    -0.14800
C1767       C  0.87070577  0.02460181  0.22437477     0.07300
C1768       C  0.89414645  0.02159592  0.24866906    -0.14800
H1769       H  0.89906824  0.99183004  0.29329048     0.11300
H1770       H  0.79430843  0.94763619  0.24645815     0.11300
H1771       H  0.81632137  0.99716760  0.20406713     0.11300
H1772       H  0.92183679  0.04251433  0.25008307     0.11300
C1773       C  0.93262208  0.03720541  0.43161168    -0.14800
C1774       C  0.90876330  0.02898848  0.40226872     0.07300
C1775       C  0.92051148  0.05006019  0.37051114    -0.14800
C1776       C  0.95562266  0.07842208  0.36801588    -0.14800
C1777       C  0.97960405  0.08608912  0.39717307     0.07300
C1778       C  0.96758514  0.06529341  0.42905155    -0.14800
H1779       H  0.92449926  0.02156393  0.45654303     0.11300
H1780       H  0.90285012  0.04422252  0.34735063     0.11300
H1781       H  0.96395253  0.09432507  0.34326954     0.11300
H1782       H  0.98510575  0.07084966  0.45228576     0.11300
C1783       C  0.93179256  0.90042883  0.42872522    -0.14800
C1784       C  0.91339621  0.89448107  0.39549029     0.07300
C1785       C  0.92288128  0.88050717  0.36545748    -0.14800
C1786       C  0.95061074  0.87318062  0.36858267    -0.14800
C1787       C  0.96911869  0.87949881  0.40186981     0.07300
C1788       C  0.95914806  0.89291987  0.43191084    -0.14800
H1789       H  0.92474616  0.91045984  0.45262627     0.11300
H1790       H  0.90894238  0.87530888  0.33957187     0.11300
H1791       H  0.95807061  0.86339095  0.34478185     0.11300
H1792       H  0.97283365  0.89812953  0.45796547     0.11300
C1793       C  0.79136862  0.00545196  0.48409684    -0.14800
C1794       C  0.78702504  0.97158569  0.49084471     0.07300
C1795       C  0.78950323  0.96243675  0.52720278    -0.14800
C1796       C  0.80181558  0.98843836  0.55488225    -0.14800
C1797       C  0.81268149  0.02405824  0.54630296     0.07300
C1798       C  0.80455812  0.03162750  0.51150211    -0.14800
H1799       H  0.78913750  0.01331756  0.45653779     0.11300
H1800       H  0.78594268  0.93650410  0.53347737     0.11300
H1801       H  0.80779590  0.98176372  0.58149628     0.11300
H1802       H  0.81248556  0.05878260  0.50419922     0.11300
C1803       C  0.76573722  0.80128776  0.48369338    -0.14800
C1804       C  0.78254696  0.80640097  0.44946886     0.07300
C1805       C  0.80476528  0.79209406  0.44379076    -0.14800
C1806       C  0.81618550  0.78039039  0.47374907    -0.14800
C1807       C  0.80470777  0.78208957  0.50944507     0.07300
C1808       C  0.77658556  0.78897696  0.51350997    -0.14800
H1809       H  0.74852349  0.81212332  0.48878293     0.11300
H1810       H  0.81817429  0.79577176  0.41768758     0.11300
H1811       H  0.83734512  0.77453733  0.46954821     0.11300
H1812       H  0.76662418  0.78996585  0.54049949     0.11300
C1813       C  0.45713635  0.69287722  0.41572876    -0.14800
C1814       C  0.47678845  0.68907067  0.38722149     0.07300
C1815       C  0.47883445  0.65773232  0.38587786    -0.14800
C1816       C  0.46390034  0.63206943  0.41352568    -0.14800
C1817       C  0.44652780  0.63700731  0.44332215     0.07300
C1818       C  0.44258506  0.66725880  0.44388703    -0.14800
H1819       H  0.45490027  0.71653520  0.41743896     0.11300
H1820       H  0.49323044  0.65360185  0.36394338     0.11300
H1821       H  0.46806799  0.60953082  0.41291600     0.11300
H1822       H  0.43006029  0.67207268  0.46719388     0.11300
C1823       C  0.65373396  0.80042972  0.31282151    -0.14800
C1824       C  0.62738634  0.80725845  0.32592476     0.07300
C1825       C  0.63767252  0.83695685  0.34904541    -0.14800
C1826       C  0.67350065  0.85956382  0.35831804    -0.14800
C1827       C  0.69989102  0.85299890  0.34470956     0.07300
C1828       C  0.68948324  0.82296733  0.32210745    -0.14800
H1829       H  0.64681215  0.77776768  0.29511790     0.11300
H1830       H  0.61806715  0.84294747  0.35981783     0.11300
H1831       H  0.68051412  0.88227087  0.37598642     0.11300
H1832       H  0.70902225  0.81691833  0.31125887     0.11300
C1833       C  0.41357150  0.79355259  0.28791378    -0.14800
C1834       C  0.41523636  0.76724499  0.26676034     0.07300
C1835       C  0.39030024  0.75031551  0.23849197    -0.14800
C1836       C  0.36410661  0.75901144  0.23182820    -0.14800
C1837       C  0.36201150  0.78488839  0.25323966     0.07300
C1838       C  0.38725044  0.80231891  0.28118618    -0.14800
H1839       H  0.43282617  0.80765333  0.30942226     0.11300
H1840       H  0.39109688  0.73039581  0.22121440     0.11300
H1841       H  0.34502117  0.74488506  0.21017844     0.11300
H1842       H  0.38611449  0.82204515  0.29846026     0.11300
C1843       C  0.36448203  0.59301576  0.23398780    -0.14800
C1844       C  0.34864346  0.57917523  0.26827566     0.07300
C1845       C  0.36956628  0.59207903  0.30010034    -0.14800
C1846       C  0.40544624  0.61879388  0.29764368    -0.14800
C1847       C  0.42085878  0.63311882  0.26334820     0.07300
C1848       C  0.40009171  0.61971068  0.23157968    -0.14800
H1849       H  0.34932045  0.58337629  0.20882090     0.11300
H1850       H  0.35821851  0.58166181  0.32683406     0.11300
H1851       H  0.42075488  0.62909627  0.32264697     0.11300
H1852       H  0.41122248  0.63030889  0.20480813     0.11300
C1853       C  0.51626787  0.86664873  0.22746480    -0.14800
C1854       C  0.54057563  0.85516359  0.21997678     0.07300
C1855       C  0.55676248  0.86229452  0.18526620    -0.14800
C1856       C  0.54425593  0.87461999  0.15688476    -0.14800
C1857       C  0.51488693  0.87935673  0.16266947     0.07300
C1858       C  0.50306382  0.87816375  0.19887904    -0.14800
H1859       H  0.50304762  0.86106620  0.25389335     0.11300
H1860       H  0.57529276  0.85337393  0.17866407     0.11300
H1861       H  0.55444137  0.87572645  0.12947192     0.11300
H1862       H  0.48081678  0.88206553  0.20444514     0.11300
C1863       C  0.54357825  0.70926483  0.13728896    -0.14800
C1864       C  0.54499002  0.69688236  0.17250586     0.07300
C1865       C  0.54037857  0.66252742  0.17560648    -0.14800
C1866       C  0.52801486  0.63899863  0.14567071    -0.14800
C1867       C  0.52065690  0.64963119  0.11208948     0.07300
C1868       C  0.53181753  0.68584378  0.10721182    -0.14800
H1869       H  0.54732002  0.73566773  0.13374610     0.11300
H1870       H  0.54163905  0.65215817  0.20216262     0.11300
H1871       H  0.51933496  0.61116495  0.15027334     0.11300
H1872       H  0.52596689  0.69467863  0.08179771     0.11300
loop_ 
_geom_bond_atom_site_label_1 
_geom_bond_atom_site_label_2 
_geom_bond_distance 
_geom_bond_site_symmetry_2 
_ccdc_geom_bond_type 
Fe1          O17   2.082       .  S
Fe1           O7   2.056       .  S
Fe1          O14   2.060       .  S
Fe1           O6   2.048       .  S
Fe1          O12   1.927       .  S
Fe2           O5   2.051       .  S
Fe2           O9   2.057       .  S
Fe2          O13   2.086       .  S
Fe2          O18   2.058       .  S
Fe2          O12   1.952       .  S
Fe3          O21   2.111       .  S
Fe3           O8   2.106       .  S
Fe3          O15   2.071       .  S
Fe3           O4   2.094       .  S
Fe3          O12   1.947       .  S
O4           C11   1.280       .  A
O5           C19   1.260       .  A
O6           C11   1.272       .  A
O7           C10   1.269       .  A
O8           C20   1.284       .  A
O9           C22   1.274       .  A
C10          O15   1.270       .  A
C10        C1834   1.483       .  S
C11        C1854   1.472       .  S
O13          C16   1.267       .  A
O14          C16   1.262       .  A
C16        C1864   1.490       .  S
O17          C22   1.278       .  A
O18          C20   1.280       .  A
C19          O21   1.270       .  A
C19        C1814   1.491       .  S
C20        C1824   1.486       .  S
C22        C1847   1.473       .  S
Fe23         O39   2.066       .  S
Fe23         O29   2.043       .  S
Fe23         O36   2.071       .  S
Fe23         O28   2.060       .  S
Fe23         O34   1.932       .  S
Fe24         O27   2.061       .  S
Fe24         O31   2.062       .  S
Fe24         O35   2.069       .  S
Fe24         O40   2.054       .  S
Fe24         O34   1.953       .  S
Fe25         O43   2.099       .  S
Fe25         O30   2.108       .  S
Fe25         O37   2.099       .  S
Fe25         O26   2.057       .  S
Fe25         O34   1.946       .  S
O26          C33   1.266       .  A
O27          C41   1.279       .  A
O28          C33   1.269       .  A
O29          C32   1.271       .  A
O30          C42   1.267       .  A
O31          C44   1.262       .  A
C32          O37   1.280       .  A
C32        C1804   1.472       .  S
C33        C1784   1.479       .  S
O35          C38   1.280       .  A
O36          C38   1.278       .  A
C38        C1774   1.476   1_565  S
O39          C44   1.263       .  A
O40          C42   1.258       .  A
C41          O43   1.283       .  A
C41        C1827   1.485       .  S
C42        C1764   1.483       .  S
C44        C1794   1.486       .  S
Fe45         O61   2.043       .  S
Fe45         O51   2.054       .  S
Fe45         O58   2.045       .  S
Fe45         O50   2.045       .  S
Fe45         O56   1.943       .  S
Fe46         O49   2.029       .  S
Fe46         O53   2.100       .  S
Fe46         O57   2.069       .  S
Fe46         O62   2.106       .  S
Fe46         O56   1.961       .  S
Fe47         O65   2.102       .  S
Fe47         O52   2.062       .  S
Fe47         O59   2.071       .  S
Fe47         O48   2.110       .  S
Fe47         O56   1.969       .  S
O48          C55   1.280       .  A
O49          C63   1.258       .  A
O50          C55   1.270       .  A
O51          C54   1.264       .  A
O52          C64   1.275       .  A
O53          C66   1.283       .  A
C54          O59   1.269       .  A
C54        C1724   1.477       .  S
C55        C1744   1.478       .  S
O57          C60   1.262       .  A
O58          C60   1.260       .  A
C60        C1754   1.478       .  S
O61          C66   1.274       .  A
O62          C64   1.283       .  A
C63          O65   1.272       .  A
C63        C1714   1.482       .  S
C64        C1734   1.492       .  S
C66        C1837   1.482       .  S
Fe67         O83   2.069       .  S
Fe67         O73   2.049       .  S
Fe67         O80   2.076       .  S
Fe67         O72   2.067       .  S
Fe67         O78   1.928       .  S
Fe68         O71   2.067       .  S
Fe68         O75   2.068       .  S
Fe68         O79   2.073       .  S
Fe68         O84   2.043       .  S
Fe68         O78   1.953       .  S
Fe69         O87   2.112       .  S
Fe69         O74   2.123       .  S
Fe69         O81   2.101       .  S
Fe69         O70   2.064       .  S
Fe69         O78   1.948       .  S
O70          C77   1.267       .  A
O71          C85   1.283       .  A
O72          C77   1.269       .  A
O73          C76   1.274       .  A
O74          C86   1.267       .  A
O75          C88   1.262       .  A
C76          O81   1.282       .  A
C76        C1694   1.475       .  S
C77        C1684   1.487   1_565  S
O79          C82   1.281       .  A
O80          C82   1.281       .  A
C82        C1787   1.477   1_455  S
O83          C88   1.263       .  A
O84          C86   1.254       .  A
C85          O87   1.286       .  A
C85        C1737   1.491       .  S
C86        C1674   1.498       .  S
C88        C1704   1.490       .  S
Fe89        O105   2.049       .  S
Fe89         O95   2.059       .  S
Fe89        O102   2.049       .  S
Fe89         O94   2.047       .  S
Fe89        O100   1.947       .  S
Fe90         O93   2.038       .  S
Fe90         O97   2.093       .  S
Fe90        O101   2.074       .  S
Fe90        O106   2.103       .  S
Fe90        O100   1.962       .  S
Fe91        O109   2.098       .  S
Fe91         O96   2.056       .  S
Fe91        O103   2.059       .  S
Fe91         O92   2.113       .  S
Fe91        O100   1.966       .  S
O92          C99   1.280       .  A
O93         C107   1.258       .  A
O94          C99   1.271       .  A
O95          C98   1.265       .  A
O96         C108   1.274       .  A
O97         C110   1.282       .  A
C98         O103   1.266       .  A
C98        C1844   1.477       .  S
C99        C1654   1.479       .  S
O101        C104   1.264       .  A
O102        C104   1.260       .  A
C104       C1664   1.482       .  S
O105        C110   1.276       .  A
O106        C108   1.284       .  A
C107        O109   1.271       .  A
C107       C1634   1.476       .  S
C108       C1644   1.489       .  S
C110       C1727   1.475       .  S
Fe111       O127   2.064       .  S
Fe111       O117   2.050       .  S
Fe111       O124   2.081       .  S
Fe111       O116   2.058       .  S
Fe111       O122   1.928       .  S
Fe112       O115   2.074       .  S
Fe112       O119   2.063       .  S
Fe112       O123   2.085       .  S
Fe112       O128   2.038       .  S
Fe112       O122   1.951       .  S
Fe113       O131   2.098       .  S
Fe113       O118   2.118       .  S
Fe113       O125   2.101       .  S
Fe113       O114   2.047       .  S
Fe113       O122   1.948       .  S
O114        C121   1.264       .  A
O115        C129   1.284       .  A
O116        C121   1.268       .  A
O117        C120   1.274       .  A
O118        C130   1.266       .  A
O119        C132   1.262       .  A
C120        O125   1.282       .  A
C120       C1614   1.476       .  S
C121       C1777   1.476   1_455  S
O123        C126   1.283       .  A
O124        C126   1.281       .  A
C126       C1687   1.488       .  S
O127        C132   1.262       .  A
O128        C130   1.253       .  A
C129        O131   1.283       .  A
C129       C1647   1.488       .  S
C130       C1607   1.492       .  S
C132       C1627   1.485       .  S
Fe133       O149   2.063       .  S
Fe133       O139   2.043       .  S
Fe133       O146   2.073       .  S
Fe133       O138   2.061       .  S
Fe133       O144   1.928       .  S
Fe134       O137   2.064       .  S
Fe134       O141   2.071       .  S
Fe134       O145   2.069       .  S
Fe134       O150   2.053       .  S
Fe134       O144   1.953       .  S
Fe135       O153   2.109       .  S
Fe135       O140   2.114       .  S
Fe135       O147   2.099       .  S
Fe135       O136   2.065       .  S
Fe135       O144   1.943       .  S
O136        C143   1.268       .  A
O137        C151   1.283       .  A
O138        C143   1.269       .  A
O139        C142   1.272       .  A
O140        C152   1.267       .  A
O141        C154   1.263       .  A
C142        O147   1.280       .  A
C142       C1594   1.471       .  S
C143       C1564   1.484       .  S
O145        C148   1.281       .  A
O146        C148   1.280       .  A
C148       C1554   1.477       .  S
O149        C154   1.261       .  A
O150        C152   1.257       .  A
C151        O153   1.286       .  A
C151       C1574   1.489       .  S
C152       C1544   1.490       .  S
C154       C1584   1.490       .  S
Fe155       O171   2.050       .  S
Fe155       O161   2.051       .  S
Fe155       O168   2.053       .  S
Fe155       O160   2.049       .  S
Fe155       O166   1.944       .  S
Fe156       O159   2.024       .  S
Fe156       O163   2.104       .  S
Fe156       O167   2.060       .  S
Fe156       O172   2.102       .  S
Fe156       O166   1.953       .  S
Fe157       O175   2.105       .  S
Fe157       O162   2.053       .  S
Fe157       O169   2.063       .  S
Fe157       O158   2.109       .  S
Fe157       O166   1.962       .  S
O158        C165   1.280       .  A
O159        C173   1.257       .  A
O160        C165   1.272       .  A
O161        C164   1.263       .  A
O162        C174   1.273       .  A
O163        C176   1.285       .  A
C164        O169   1.268       .  A
C164       C1504   1.471       .  S
C165       C1524   1.478       .  S
O167        C170   1.260       .  A
O168        C170   1.261       .  A
C170       C1537   1.476       .  S
O171        C176   1.275       .  A
O172        C174   1.282       .  A
C173        O175   1.273       .  A
C173       C1717   1.483       .  S
C174       C1577   1.487       .  S
C176       C1514   1.487       .  S
Fe177       O193   2.048       .  S
Fe177       O183   2.062       .  S
Fe177       O190   2.046       .  S
Fe177       O182   2.044       .  S
Fe177       O188   1.946       .  S
Fe178       O181   2.043       .  S
Fe178       O185   2.082       .  S
Fe178       O189   2.077       .  S
Fe178       O194   2.093       .  S
Fe178       O188   1.964       .  S
Fe179       O197   2.101       .  S
Fe179       O184   2.068       .  S
Fe179       O191   2.063       .  S
Fe179       O180   2.114       .  S
Fe179       O188   1.971       .  S
O180        C187   1.281       .  A
O181        C195   1.260       .  A
O182        C187   1.270       .  A
O183        C186   1.265       .  A
O184        C196   1.275       .  A
O185        C198   1.279       .  A
C186        O191   1.266       .  A
C186       C1474   1.480       .  S
C187       C1497   1.479       .  S
O189        C192   1.265       .  A
O190        C192   1.260       .  A
C192       C1484   1.482       .  S
O193        C198   1.276       .  A
O194        C196   1.281       .  A
C195        O197   1.271       .  A
C195       C1817   1.478       .  S
C196       C1464   1.490       .  S
C198       C1507   1.464       .  S
Fe199       O215   2.068       .  S
Fe199       O205   2.056       .  S
Fe199       O212   2.084       .  S
Fe199       O204   2.058       .  S
Fe199       O210   1.929       .  S
Fe200       O203   2.068       .  S
Fe200       O207   2.065       .  S
Fe200       O211   2.074       .  S
Fe200       O216   2.044       .  S
Fe200       O210   1.952       .  S
Fe201       O219   2.112       .  S
Fe201       O206   2.113       .  S
Fe201       O213   2.093       .  S
Fe201       O202   2.067       .  S
Fe201       O210   1.947       .  S
O202        C209   1.268       .  A
O203        C217   1.283       .  A
O204        C209   1.268       .  A
O205        C208   1.274       .  A
O206        C218   1.266       .  A
O207        C220   1.262       .  A
C208        O213   1.279       .  A
C208       C1444   1.473       .  S
C209       C1434   1.483       .  S
O211        C214   1.281       .  A
O212        C214   1.281       .  A
C214       C1567   1.482       .  S
O215        C220   1.263       .  A
O216        C218   1.255       .  A
C217        O219   1.287       .  A
C217       C1467   1.491       .  S
C218       C1424   1.494       .  S
C220       C1454   1.487       .  S
Fe221       O237   2.086       .  S
Fe221       O227   2.063       .  S
Fe221       O234   2.064       .  S
Fe221       O226   2.054       .  S
Fe221       O232   1.933       .  S
Fe222       O225   2.053       .  S
Fe222       O229   2.055       .  S
Fe222       O233   2.078       .  S
Fe222       O238   2.056       .  S
Fe222       O232   1.954       .  S
Fe223       O241   2.106       .  S
Fe223       O228   2.105       .  S
Fe223       O235   2.073       .  S
Fe223       O224   2.090       .  S
Fe223       O232   1.947       .  S
O224        C231   1.278       .  A
O225        C239   1.261       .  A
O226        C231   1.272       .  A
O227        C230   1.270       .  A
O228        C240   1.283       .  A
O229        C242   1.274       .  A
C230        O235   1.271       .  A
C230       C1517   1.485       .  S
C231       C1414   1.472       .  S
O233        C236   1.266       .  A
O234        C236   1.263       .  A
C236       C1404   1.487       .  S
O237        C242   1.278       .  A
O238        C240   1.279       .  A
C239        O241   1.271       .  A
C239       C1637   1.489       .  S
C240       C1394   1.485       .  S
C242       C1477   1.472       .  S
Fe243       O259   2.065       .  S
Fe243       O249   2.052       .  S
Fe243       O256   2.079       .  S
Fe243       O248   2.057       .  S
Fe243       O254   1.929       .  S
Fe244       O247   2.068       .  S
Fe244       O251   2.062       .  S
Fe244       O255   2.078       .  S
Fe244       O260   2.048       .  S
Fe244       O254   1.952       .  S
Fe245       O263   2.093       .  S
Fe245       O250   2.100       .  S
Fe245       O257   2.092       .  S
Fe245       O246   2.053       .  S
Fe245       O254   1.943       .  S
O246        C253   1.265       .  A
O247        C261   1.281       .  A
O248        C253   1.268       .  A
O249        C252   1.273       .  A
O250        C262   1.265       .  A
O251        C264   1.262       .  A
C252        O257   1.279       .  A
C252       C1384   1.472       .  S
C253       C1557   1.477       .  S
O255        C258   1.281       .  A
O256        C258   1.280       .  A
C258       C1437   1.485       .  S
O259        C264   1.263       .  A
O260        C262   1.256       .  A
C261        O263   1.282       .  A
C261       C1397   1.485       .  S
C262       C1364   1.475       .  S
C264       C1374   1.484       .  S
Fe265       O281   2.063       .  S
Fe265       O271   2.041       .  S
Fe265       O278   2.071       .  S
Fe265       O270   2.059       .  S
Fe265       O276   1.929       .  S
Fe266       O269   2.071       .  S
Fe266       O273   2.073       .  S
Fe266       O277   2.078       .  S
Fe266       O282   2.051       .  S
Fe266       O276   1.955       .  S
Fe267       O285   2.104       .  S
Fe267       O272   2.111       .  S
Fe267       O279   2.099       .  S
Fe267       O268   2.066       .  S
Fe267       O276   1.945       .  S
O268        C275   1.268       .  A
O269        C283   1.283       .  A
O270        C275   1.269       .  A
O271        C274   1.271       .  A
O272        C284   1.267       .  A
O273        C286   1.263       .  A
C274        O279   1.280       .  A
C274       C1354   1.472       .  S
C275       C1324   1.484       .  S
O277        C280   1.281       .  A
O278        C280   1.279       .  A
C280       C1314   1.481       .  S
O281        C286   1.262       .  A
O282        C284   1.256       .  A
C283        O285   1.285       .  A
C283       C1334   1.490       .  S
C284       C1427   1.482       .  S
C286       C1344   1.489       .  S
Fe287       O303   2.050       .  S
Fe287       O293   2.046       .  S
Fe287       O300   2.046       .  S
Fe287       O292   2.049       .  S
Fe287       O298   1.944       .  S
Fe288       O291   2.036       .  S
Fe288       O295   2.092       .  S
Fe288       O299   2.071       .  S
Fe288       O304   2.101       .  S
Fe288       O298   1.956       .  S
Fe289       O307   2.103       .  S
Fe289       O294   2.062       .  S
Fe289       O301   2.072       .  S
Fe289       O290   2.106       .  S
Fe289       O298   1.969       .  S
O290        C297   1.279       .  A
O291        C305   1.259       .  A
O292        C297   1.271       .  A
O293        C296   1.262       .  A
O294        C306   1.274       .  A
O295        C308   1.282       .  A
C296        O301   1.270       .  A
C296       C1307   1.471       .  S
C297       C1624   1.477       .  S
O299        C302   1.263       .  A
O300        C302   1.260       .  A
C302       C1697   1.481       .  S
O303        C308   1.275       .  A
O304        C306   1.283       .  A
C305        O307   1.273       .  A
C305       C1284   1.484       .  S
C306       C1337   1.491       .  S
C308       C1294   1.479   1_545  S
Fe309       O325   2.069       .  S
Fe309       O315   2.056       .  S
Fe309       O322   2.083       .  S
Fe309       O314   2.061       .  S
Fe309       O320   1.926       .  S
Fe310       O313   2.065       .  S
Fe310       O317   2.065       .  S
Fe310       O321   2.076       .  S
Fe310       O326   2.042       .  S
Fe310       O320   1.951       .  S
Fe311       O329   2.110       .  S
Fe311       O316   2.124       .  S
Fe311       O323   2.098       .  S
Fe311       O312   2.061       .  S
Fe311       O320   1.947       .  S
O312        C319   1.267       .  A
O313        C327   1.283       .  A
O314        C319   1.268       .  A
O315        C318   1.275       .  A
O316        C328   1.267       .  A
O317        C330   1.262       .  A
C318        O323   1.281       .  A
C318       C1274   1.475       .  S
C319       C1244   1.483       .  S
O321        C324   1.282       .  A
O322        C324   1.283       .  A
C324       C1327   1.483       .  S
O325        C330   1.262       .  A
O326        C328   1.254       .  A
C327        O329   1.286       .  A
C327       C1254   1.488       .  S
C328       C1547   1.497       .  S
C330       C1264   1.488       .  S
Fe331       O347   2.047       .  S
Fe331       O337   2.066       .  S
Fe331       O344   2.055       .  S
Fe331       O336   2.048       .  S
Fe331       O342   1.946       .  S
Fe332       O335   2.034       .  S
Fe332       O339   2.089       .  S
Fe332       O343   2.068       .  S
Fe332       O348   2.096       .  S
Fe332       O342   1.961       .  S
Fe333       O351   2.106       .  S
Fe333       O338   2.061       .  S
Fe333       O345   2.067       .  S
Fe333       O334   2.111       .  S
Fe333       O342   1.967       .  S
O334        C341   1.281       .  A
O335        C349   1.259       .  A
O336        C341   1.272       .  A
O337        C340   1.266       .  A
O338        C350   1.274       .  A
O339        C352   1.281       .  A
C340        O345   1.268       .  A
C340       C1234   1.483   1_545  S
C341       C1797   1.478       .  S
O343        C346   1.263       .  A
O344        C346   1.262       .  A
C346       C1617   1.480       .  S
O347        C352   1.276       .  A
O348        C350   1.281       .  A
C349        O351   1.273       .  A
C349       C1224   1.488       .  S
C350       C1257   1.489       .  S
C352       C1304   1.472   1_655  S
Fe353       O369   2.069       .  S
Fe353       O359   2.051       .  S
Fe353       O366   2.076       .  S
Fe353       O358   2.064       .  S
Fe353       O364   1.927       .  S
Fe354       O357   2.063       .  S
Fe354       O361   2.058       .  S
Fe354       O365   2.078       .  S
Fe354       O370   2.036       .  S
Fe354       O364   1.952       .  S
Fe355       O373   2.105       .  S
Fe355       O360   2.112       .  S
Fe355       O367   2.098       .  S
Fe355       O356   2.053       .  S
Fe355       O364   1.950       .  S
O356        C363   1.265       .  A
O357        C371   1.281       .  A
O358        C363   1.269       .  A
O359        C362   1.274       .  A
O360        C372   1.264       .  A
O361        C374   1.262       .  A
C362        O367   1.281       .  A
C362       C1214   1.474       .  S
C363       C1317   1.480       .  S
O365        C368   1.281       .  A
O366        C368   1.279       .  A
C368       C1247   1.483       .  S
O369        C374   1.264       .  A
O370        C372   1.253       .  A
C371        O373   1.285       .  A
C371       C1194   1.487       .  S
C372       C1367   1.487       .  S
C374       C1204   1.485       .  S
Fe375       O391   2.091       .  S
Fe375       O381   2.056       .  S
Fe375       O388   2.061       .  S
Fe375       O380   2.055       .  S
Fe375       O386   1.932       .  S
Fe376       O379   2.058       .  S
Fe376       O383   2.062       .  S
Fe376       O387   2.078       .  S
Fe376       O392   2.058       .  S
Fe376       O386   1.952       .  S
Fe377       O395   2.107       .  S
Fe377       O382   2.108       .  S
Fe377       O389   2.067       .  S
Fe377       O378   2.090       .  S
Fe377       O386   1.940       .  S
O378        C385   1.278       .  A
O379        C393   1.260       .  A
O380        C385   1.272       .  A
O381        C384   1.269       .  A
O382        C394   1.285       .  A
O383        C396   1.276       .  A
C384        O389   1.271       .  A
C384       C1297   1.481   1_655  S
C385       C1707   1.474       .  S
O387        C390   1.265       .  A
O388        C390   1.261       .  A
C390       C1807   1.486       .  S
O391        C396   1.280       .  A
O392        C394   1.280       .  A
C393        O395   1.269       .  A
C393       C1184   1.484       .  S
C394       C1197   1.487       .  S
C396       C1237   1.479       .  S
Fe397       O413   2.065       .  S
Fe397       O403   2.051       .  S
Fe397       O410   2.077       .  S
Fe397       O402   2.063       .  S
Fe397       O408   1.936       .  S
Fe398       O401   2.072       .  S
Fe398       O405   2.062       .  S
Fe398       O409   2.080       .  S
Fe398       O414   2.048       .  S
Fe398       O408   1.955       .  S
Fe399       O417   2.099       .  S
Fe399       O404   2.107       .  S
Fe399       O411   2.103       .  S
Fe399       O400   2.054       .  S
Fe399       O408   1.943       .  S
O400        C407   1.266       .  A
O401        C415   1.282       .  A
O402        C407   1.269       .  A
O403        C406   1.272       .  A
O404        C416   1.267       .  A
O405        C418   1.262       .  A
C406        O411   1.281       .  A
C406       C1487   1.478       .  S
C407       C1154   1.480       .  S
O409        C412   1.281       .  A
O410        C412   1.279       .  A
C412       C1174   1.485       .  S
O413        C418   1.263       .  A
O414        C416   1.256       .  A
C415        O417   1.283       .  A
C415       C1164   1.490       .  S
C416       C1144   1.479       .  S
C418       C1527   1.485       .  S
Fe419       O435   2.087       .  S
Fe419       O425   2.062       .  S
Fe419       O432   2.063       .  S
Fe419       O424   2.053       .  S
Fe419       O430   1.930       .  S
Fe420       O423   2.053       .  S
Fe420       O427   2.061       .  S
Fe420       O431   2.080       .  S
Fe420       O436   2.060       .  S
Fe420       O430   1.951       .  S
Fe421       O439   2.113       .  S
Fe421       O426   2.111       .  S
Fe421       O433   2.067       .  S
Fe421       O422   2.090       .  S
Fe421       O430   1.943       .  S
O422        C429   1.279       .  A
O423        C437   1.260       .  A
O424        C429   1.273       .  A
O425        C428   1.270       .  A
O426        C438   1.285       .  A
O427        C440   1.275       .  A
C428        O433   1.270       .  A
C428       C1107   1.484   1_565  S
C429       C1124   1.471       .  S
O431        C434   1.266       .  A
O432        C434   1.262       .  A
C434       C1134   1.487   1_556  S
O435        C440   1.280       .  A
O436        C438   1.280       .  A
C437        O439   1.269       .  A
C437       C1187   1.495       .  S
C438       C1167   1.489       .  S
C440       C1114   1.475       .  S
Fe441       O457   2.064       .  S
Fe441       O447   2.045       .  S
Fe441       O454   2.076       .  S
Fe441       O446   2.056       .  S
Fe441       O452   1.931       .  S
Fe442       O445   2.068       .  S
Fe442       O449   2.066       .  S
Fe442       O453   2.074       .  S
Fe442       O458   2.053       .  S
Fe442       O452   1.954       .  S
Fe443       O461   2.105       .  S
Fe443       O448   2.111       .  S
Fe443       O455   2.100       .  S
Fe443       O444   2.058       .  S
Fe443       O452   1.946       .  S
O444        C451   1.266       .  A
O445        C459   1.283       .  A
O446        C451   1.268       .  A
O447        C450   1.272       .  A
O448        C460   1.266       .  A
O449        C462   1.262       .  A
C450        O455   1.280       .  A
C450       C1407   1.473       .  S
C451       C1094   1.479       .  S
O453        C456   1.282       .  A
O454        C456   1.280       .  A
C456       C1157   1.480       .  S
O457        C462   1.261       .  A
O458        C460   1.256       .  A
C459        O461   1.285       .  A
C459       C1084   1.490       .  S
C460       C1074   1.485       .  S
C462       C1494   1.487       .  S
Fe463       O479   2.048       .  S
Fe463       O469   2.050       .  S
Fe463       O476   2.052       .  S
Fe463       O468   2.047       .  S
Fe463       O474   1.945       .  S
Fe464       O467   2.027       .  S
Fe464       O471   2.099   1_455  S
Fe464       O475   2.066       .  S
Fe464       O480   2.105       .  S
Fe464       O474   1.956       .  S
Fe465       O483   2.109       .  S
Fe465       O470   2.058       .  S
Fe465       O477   2.067       .  S
Fe465       O466   2.113       .  S
Fe465       O474   1.970       .  S
O466        C473   1.280       .  A
O467        C481   1.257       .  A
O468        C473   1.270       .  A
O469        C472   1.264       .  A
O470        C482   1.274       .  A
O471        C484   1.283       .  A
C472        O477   1.268       .  A
C472       C1044   1.467       .  S
C473       C1054   1.480       .  S
O475        C478   1.262       .  A
O476        C478   1.261       .  A
C478       C1064   1.481   1_556  S
O479        C484   1.274   1_455  A
O480        C482   1.283       .  A
C481        O483   1.274       .  A
C481       C1227   1.484       .  S
C482       C1087   1.490       .  S
C484       C1104   1.483       .  S
Fe485       O501   2.069       .  S
Fe485       O491   2.054       .  S
Fe485       O498   2.079       .  S
Fe485       O490   2.065       .  S
Fe485       O496   1.926       .  S
Fe486       O489   2.060       .  S
Fe486       O493   2.066       .  S
Fe486       O497   2.069       .  S
Fe486       O502   2.041       .  S
Fe486       O496   1.952       .  S
Fe487       O505   2.110       .  S
Fe487       O492   2.114       .  S
Fe487       O499   2.090       .  S
Fe487       O488   2.065       .  S
Fe487       O496   1.949       .  S
O488        C495   1.268       .  A
O489        C503   1.282       .  A
O490        C495   1.269       .  A
O491        C494   1.275       .  A
O492        C504   1.266       .  A
O493        C506   1.262       .  A
C494        O499   1.279       .  A
C494       C1534   1.471       .  S
C495       C1177   1.486       .  S
O497        C500   1.280       .  A
O498        C500   1.281       .  A
C500       C1097   1.479       .  S
O501        C506   1.263       .  A
O502        C504   1.254       .  A
C503        O505   1.286       .  A
C503       C1034   1.486       .  S
C504       C1024   1.491       .  S
C506       C1417   1.488       .  S
Fe507       O523   2.041       .  S
Fe507       O513   2.062       .  S
Fe507       O520   2.057       .  S
Fe507       O512   2.046       .  S
Fe507       O518   1.941       .  S
Fe508       O511   2.029       .  S
Fe508       O515   2.092       .  S
Fe508       O519   2.064       .  S
Fe508       O524   2.093       .  S
Fe508       O518   1.959       .  S
Fe509       O527   2.111       .  S
Fe509       O514   2.061       .  S
Fe509       O521   2.068       .  S
Fe509       O510   2.116       .  S
Fe509       O518   1.965       .  S
O510        C517   1.282       .  A
O511        C525   1.259       .  A
O512        C517   1.272       .  A
O513        C516   1.265       .  A
O514        C526   1.273       .  A
O515        C528   1.281       .  A
C516        O521   1.267       .  A
C516       C1117   1.482   1_455  S
C517       C1014   1.479       .  S
O519        C522   1.262       .  A
O520        C522   1.262       .  A
C522       C1004   1.478   1_556  S
O523        C528   1.275       .  A
O524        C526   1.280       .  A
C525        O527   1.275       .  A
C525       C1287   1.488       .  S
C526       C1037   1.489       .  S
C528       C1047   1.474   1_565  S
Fe529       O545   2.047       .  S
Fe529       O535   2.060       .  S
Fe529       O542   2.046       .  S
Fe529       O534   2.044       .  S
Fe529       O540   1.945       .  S
Fe530       O533   2.035   1_556  S
Fe530       O537   2.088       .  S
Fe530       O541   2.073       .  S
Fe530       O546   2.099       .  S
Fe530       O540   1.961       .  S
Fe531       O549   2.106   1_556  S
Fe531       O536   2.064       .  S
Fe531       O543   2.069       .  S
Fe531       O532   2.118       .  S
Fe531       O540   1.970       .  S
O532        C539   1.281       .  A
O533        C547   1.259       .  A
O534        C539   1.269       .  A
O535        C538   1.265       .  A
O536        C548   1.275       .  A
O537        C550   1.281       .  A
C538        O543   1.268       .  A
C538        C974   1.482       .  S
C539       C1347   1.480       .  S
O541        C544   1.264       .  A
O542        C544   1.260       .  A
C544       C1217   1.481       .  S
O545        C550   1.275       .  A
O546        C548   1.282       .  A
C547        O549   1.273       .  A
C547        C964   1.489       .  S
C548        C994   1.489       .  S
C550        C984   1.468       .  S
Fe551       O567   2.066       .  S
Fe551       O557   2.045       .  S
Fe551       O564   2.073       .  S
Fe551       O556   2.060       .  S
Fe551       O562   1.926       .  S
Fe552       O555   2.065       .  S
Fe552       O559   2.066       .  S
Fe552       O563   2.077       .  S
Fe552       O568   2.040   1_554  S
Fe552       O562   1.951       .  S
Fe553       O571   2.111       .  S
Fe553       O558   2.124   1_554  S
Fe553       O565   2.104       .  S
Fe553       O554   2.056       .  S
Fe553       O562   1.950       .  S
O554        C561   1.267       .  A
O555        C569   1.282       .  A
O556        C561   1.270       .  A
O557        C560   1.272       .  A
O558        C570   1.267       .  A
O559        C572   1.263       .  A
C560        O565   1.282       .  A
C560       C1867   1.474       .  S
C561        C954   1.480       .  S
O563        C566   1.280       .  A
O564        C566   1.278       .  A
C566        C944   1.480       .  S
O567        C572   1.263       .  A
O568        C570   1.254       .  A
C569        O571   1.286       .  A
C569        C997   1.490       .  S
C570       C1077   1.497       .  S
C572       C1657   1.486       .  S
Fe573       O589   2.084       .  S
Fe573       O579   2.053       .  S
Fe573       O586   2.060       .  S
Fe573       O578   2.052       .  S
Fe573       O584   1.929       .  S
Fe574       O577   2.054   1_556  S
Fe574       O581   2.064       .  S
Fe574       O585   2.085       .  S
Fe574       O590   2.062       .  S
Fe574       O584   1.948       .  S
Fe575       O593   2.108   1_556  S
Fe575       O580   2.105       .  S
Fe575       O587   2.068       .  S
Fe575       O576   2.089       .  S
Fe575       O584   1.942       .  S
O576        C583   1.278       .  A
O577        C591   1.261       .  A
O578        C583   1.272       .  A
O579        C582   1.268       .  A
O580        C592   1.283       .  A
O581        C594   1.275       .  A
C582        O587   1.270       .  A
C582        C924   1.479       .  S
C583       C1267   1.471       .  S
O585        C588   1.267       .  A
O586        C588   1.263       .  A
C588       C1357   1.488       .  S
O589        C594   1.278       .  A
O590        C592   1.281       .  A
C591        O593   1.270       .  A
C591        C914   1.483       .  S
C592        C937   1.488       .  S
C594        C977   1.478       .  S
Fe595       O611   2.072       .  S
Fe595       O601   2.052       .  S
Fe595       O608   2.074       .  S
Fe595       O600   2.068       .  S
Fe595       O606   1.929       .  S
Fe596       O599   2.071       .  S
Fe596       O603   2.067       .  S
Fe596       O607   2.075       .  S
Fe596       O612   2.043   1_554  S
Fe596       O606   1.953       .  S
Fe597       O615   2.099       .  S
Fe597       O602   2.112   1_554  S
Fe597       O609   2.097       .  S
Fe597       O598   2.056       .  S
Fe597       O606   1.948       .  S
O598        C605   1.265       .  A
O599        C613   1.283       .  A
O600        C605   1.270       .  A
O601        C604   1.274       .  A
O602        C614   1.266       .  A
O603        C616   1.263       .  A
C604        O609   1.281       .  A
C604       C1757   1.474       .  S
C605        C904   1.484       .  S
O607        C610   1.281       .  A
O608        C610   1.280       .  A
C610        C957   1.480       .  S
O611        C616   1.264       .  A
O612        C614   1.255       .  A
C613        O615   1.284       .  A
C613        C934   1.488       .  S
C614       C1147   1.491       .  S
C616       C1857   1.490       .  S
Fe617       O633   2.065       .  S
Fe617       O623   2.048       .  S
Fe617       O630   2.076       .  S
Fe617       O622   2.063       .  S
Fe617       O628   1.928       .  S
Fe618       O621   2.070       .  S
Fe618       O625   2.064       .  S
Fe618       O629   2.083       .  S
Fe618       O634   2.046   1_554  S
Fe618       O628   1.954       .  S
Fe619       O637   2.102       .  S
Fe619       O624   2.109   1_554  S
Fe619       O631   2.100       .  S
Fe619       O620   2.055       .  S
Fe619       O628   1.942       .  S
O620        C627   1.266       .  A
O621        C635   1.284       .  A
O622        C627   1.269       .  A
O623        C626   1.272       .  A
O624        C636   1.265       .  A
O625        C638   1.261       .  A
C626        O631   1.280       .  A
C626       C1667   1.475       .  S
C627        C947   1.480       .  S
O629        C632   1.283       .  A
O630        C632   1.280       .  A
C632        C907   1.484       .  S
O633        C638   1.262       .  A
O634        C636   1.254       .  A
C635        O637   1.284       .  A
C635        C894   1.488       .  S
C636       C1027   1.480       .  S
C638       C1747   1.487       .  S
Fe639       O655   2.043       .  S
Fe639       O645   2.053       .  S
Fe639       O652   2.049       .  S
Fe639       O644   2.049       .  S
Fe639       O650   1.943       .  S
Fe640       O643   2.035       .  S
Fe640       O647   2.095       .  S
Fe640       O651   2.068       .  S
Fe640       O656   2.102       .  S
Fe640       O650   1.957       .  S
Fe641       O659   2.102   1_556  S
Fe641       O646   2.057       .  S
Fe641       O653   2.069       .  S
Fe641       O642   2.106       .  S
Fe641       O650   1.963       .  S
O642        C649   1.279       .  A
O643        C657   1.259   1_556  A
O644        C649   1.272       .  A
O645        C648   1.264       .  A
O646        C658   1.274       .  A
O647        C660   1.282       .  A
C648        O653   1.269       .  A
C648        C987   1.474       .  S
C649       C1207   1.477       .  S
O651        C654   1.263       .  A
O652        C654   1.261       .  A
C654       C1277   1.479       .  S
O655        C660   1.274       .  A
O656        C658   1.283       .  A
C657        O659   1.273       .  A
C657        C884   1.483       .  S
C658        C897   1.489       .  S
C660        C927   1.480       .  S
Fe661       O677   2.063       .  S
Fe661       O667   2.047       .  S
Fe661       O674   2.077       .  S
Fe661       O666   2.061       .  S
Fe661       O672   1.931       .  S
Fe662       O665   2.069       .  S
Fe662       O669   2.067       .  S
Fe662       O673   2.078       .  S
Fe662       O678   2.050       .  S
Fe662       O672   1.951       .  S
Fe663       O681   2.106       .  S
Fe663       O668   2.115       .  S
Fe663       O675   2.098       .  S
Fe663       O664   2.061       .  S
Fe663       O672   1.944       .  S
O664        C671   1.268       .  A
O665        C679   1.283       .  A
O666        C671   1.269       .  A
O667        C670   1.272       .  A
O668        C680   1.267       .  A
O669        C682   1.262       .  A
C670        O675   1.280       .  A
C670       C1137   1.472       .  S
C671        C864   1.482       .  S
O673        C676   1.282       .  A
O674        C676   1.280       .  A
C676        C854   1.483   1_655  S
O677        C682   1.261       .  A
O678        C680   1.256       .  A
C679        O681   1.284       .  A
C679        C874   1.490       .  S
C680       C1677   1.488       .  S
C682       C1017   1.487       .  S
Fe683       O699   2.043       .  S
Fe683       O689   2.055       .  S
Fe683       O696   2.050       .  S
Fe683       O688   2.046       .  S
Fe683       O694   1.945       .  S
Fe684       O687   2.034       .  S
Fe684       O691   2.102       .  S
Fe684       O695   2.068       .  S
Fe684       O700   2.108       .  S
Fe684       O694   1.958       .  S
Fe685       O703   2.103       .  S
Fe685       O690   2.055       .  S
Fe685       O697   2.068       .  S
Fe685       O686   2.108       .  S
Fe685       O694   1.966       .  S
O686        C693   1.280       .  A
O687        C701   1.259       .  A
O688        C693   1.271       .  A
O689        C692   1.264       .  A
O690        C702   1.273       .  A
O691        C704   1.284       .  A
C692        O697   1.269       .  A
C692        C834   1.476       .  S
C693       C1377   1.477       .  S
O695        C698   1.262       .  A
O696        C698   1.261       .  A
C698       C1447   1.480       .  S
O699        C704   1.274       .  A
O700        C702   1.284       .  A
C701        O703   1.273       .  A
C701        C967   1.484       .  S
C702        C877   1.491       .  S
C704        C844   1.483       .  S
Fe705       O721   2.065       .  S
Fe705       O711   2.050       .  S
Fe705       O718   2.081       .  S
Fe705       O710   2.053       .  S
Fe705       O716   1.928       .  S
Fe706       O709   2.070       .  S
Fe706       O713   2.068       .  S
Fe706       O717   2.074       .  S
Fe706       O722   2.042       .  S
Fe706       O716   1.951       .  S
Fe707       O725   2.114       .  S
Fe707       O712   2.119       .  S
Fe707       O719   2.098       .  S
Fe707       O708   2.064       .  S
Fe707       O716   1.950       .  S
O708        C715   1.267       .  A
O709        C723   1.283       .  A
O710        C715   1.267       .  A
O711        C714   1.274       .  A
O712        C724   1.266       .  A
O713        C726   1.263       .  A
C714        O719   1.281       .  A
C714       C1067   1.473       .  S
C715        C814   1.480   1_655  S
O717        C720   1.281       .  A
O718        C720   1.280       .  A
C720        C867   1.482   1_545  S
O721        C726   1.262       .  A
O722        C724   1.255       .  A
C723        O725   1.287       .  A
C723        C824   1.494       .  S
C724       C1767   1.495       .  S
C726       C1127   1.488       .  S
Fe727       O743   2.047       .  S
Fe727       O733   2.058       .  S
Fe727       O740   2.051       .  S
Fe727       O732   2.048       .  S
Fe727       O738   1.947       .  S
Fe728       O731   2.027       .  S
Fe728       O735   2.094       .  S
Fe728       O739   2.064       .  S
Fe728       O744   2.099       .  S
Fe728       O738   1.963       .  S
Fe729       O747   2.110       .  S
Fe729       O734   2.071       .  S
Fe729       O741   2.069       .  S
Fe729       O730   2.116       .  S
Fe729       O738   1.972       .  S
O730        C737   1.281       .  A
O731        C745   1.258       .  A
O732        C737   1.271       .  A
O733        C736   1.265       .  A
O734        C746   1.276       .  A
O735        C748   1.281       .  A
C736        O741   1.268       .  A
C736        C804   1.482       .  S
C737       C1587   1.482       .  S
O739        C742   1.262       .  A
O740        C742   1.261       .  A
C742       C1387   1.478       .  S
O743        C748   1.275       .  A
O744        C746   1.282       .  A
C745        O747   1.273       .  A
C745        C887   1.488       .  S
C746        C827   1.493       .  S
C748        C837   1.474       .  S
Fe749       O765   2.085       .  S
Fe749       O755   2.058       .  S
Fe749       O762   2.063       .  S
Fe749       O754   2.056       .  S
Fe749       O760   1.923       .  S
Fe750       O753   2.050       .  S
Fe750       O757   2.063       .  S
Fe750       O761   2.081       .  S
Fe750       O766   2.056       .  S
Fe750       O760   1.945       .  S
Fe751       O769   2.114       .  S
Fe751       O756   2.110       .  S
Fe751       O763   2.069       .  S
Fe751       O752   2.084       .  S
Fe751       O760   1.942       .  S
O752        C759   1.278       .  A
O753        C767   1.259       .  A
O754        C759   1.274       .  A
O755        C758   1.269       .  A
O756        C768   1.285       .  A
O757        C770   1.275       .  A
C758        O763   1.270       .  A
C758        C847   1.482       .  S
C759       C1457   1.468       .  S
O761        C764   1.267       .  A
O762        C764   1.264       .  A
C764       C1597   1.487       .  S
O765        C770   1.279       .  A
O766        C768   1.280       .  A
C767        O769   1.269       .  A
C767        C917   1.493       .  S
C768        C797   1.486       .  S
C770        C807   1.479       .  S
Fe771       O787   2.066       .  S
Fe771       O777   2.050       .  S
Fe771       O784   2.078       .  S
Fe771       O776   2.065       .  S
Fe771       O782   1.931       .  S
Fe772       O775   2.066       .  S
Fe772       O779   2.067       .  S
Fe772       O783   2.069       .  S
Fe772       O788   2.051       .  S
Fe772       O782   1.954       .  S
Fe773       O791   2.099       .  S
Fe773       O778   2.106       .  S
Fe773       O785   2.095       .  S
Fe773       O774   2.058       .  S
Fe773       O782   1.942       .  S
O774        C781   1.266       .  A
O775        C789   1.281       .  A
O776        C781   1.269       .  A
O777        C780   1.273       .  A
O778        C790   1.266       .  A
O779        C792   1.263       .  A
C780        O785   1.280       .  A
C780       C1007   1.474       .  S
C781        C857   1.483   1_545  S
O783        C786   1.279       .  A
O784        C786   1.280       .  A
C786        C817   1.480       .  S
O787        C792   1.262       .  A
O788        C790   1.257       .  A
C789        O791   1.283       .  A
C789        C794   1.486       .  S
C790       C1604   1.481       .  S
C792       C1057   1.487       .  S
C793        C794   1.405       .  A
C793        C798   1.402       .  A
C793        H799   1.083       .  S
C794        C795   1.408       .  A
C795        C796   1.396       .  A
C795        H800   1.083       .  S
C796        C797   1.404       .  A
C796        H801   1.083       .  S
C797        C798   1.409       .  A
C798        H802   1.083       .  S
C803        C804   1.405       .  A
C803        C808   1.403       .  A
C803        H809   1.083       .  S
C804        C805   1.408       .  A
C805        C806   1.391       .  A
C805        H810   1.083       .  S
C806        C807   1.403       .  A
C806        H811   1.083       .  S
C807        C808   1.408       .  A
C808        H812   1.083       .  S
C813        C814   1.407       .  A
C813        C818   1.401       .  A
C813        H819   1.083       .  S
C814        C815   1.405       .  A
C815        C816   1.391       .  A
C815        H820   1.083       .  S
C816        C817   1.406       .  A
C816        H821   1.083       .  S
C817        C818   1.406       .  A
C818        H822   1.083       .  S
C823        C824   1.405       .  A
C823        C828   1.402       .  A
C823        H829   1.083       .  S
C824        C825   1.411       .  A
C825        C826   1.403       .  A
C825        H830   1.083       .  S
C826        C827   1.405       .  A
C826        H831   1.083       .  S
C827        C828   1.410       .  A
C828        H832   1.083       .  S
C833        C834   1.406       .  A
C833        C838   1.391       .  A
C833        H839   1.083       .  S
C834        C835   1.404       .  A
C835        C836   1.402       .  A
C835        H840   1.083       .  S
C836        C837   1.406       .  A
C836        H841   1.081       .  S
C837        C838   1.402       .  A
C838        H842   1.084       .  S
C843        C844   1.408       .  A
C843        C848   1.396       .  A
C843        H849   1.083       .  S
C844        C845   1.405       .  A
C845        C846   1.400       .  A
C845        H850   1.083       .  S
C846        C847   1.408       .  A
C846        H851   1.083       .  S
C847        C848   1.404       .  A
C848        H852   1.083       .  S
C853        C854   1.408       .  A
C853        C858   1.394       .  A
C853        H859   1.083       .  S
C854        C855   1.405       .  A
C855        C856   1.401       .  A
C855        H860   1.083       .  S
C856        C857   1.409       .  A
C856        H861   1.083       .  S
C857        C858   1.404       .  A
C858        H862   1.083       .  S
C863        C864   1.405       .  A
C863        C868   1.394       .  A
C863        H869   1.083       .  S
C864        C865   1.408       .  A
C865        C866   1.400       .  A
C865        H870   1.083       .  S
C866        C867   1.406       .  A
C866        H871   1.083       .  S
C867        C868   1.407       .  A
C868        H872   1.083       .  S
C873        C874   1.403       .  A
C873        C878   1.398       .  A
C873        H879   1.083       .  S
C874        C875   1.412       .  A
C875        C876   1.404       .  A
C875        H880   1.083       .  S
C876        C877   1.404       .  A
C876        H881   1.083       .  S
C877        C878   1.410       .  A
C878        H882   1.083       .  S
C883        C884   1.398       .  A
C883        C888   1.399       .  A
C883        H889   1.083       .  S
C884        C885   1.413       .  A
C885        C886   1.405       .  A
C885        H890   1.083       .  S
C886        C887   1.401       .  A
C886        H891   1.083       .  S
C887        C888   1.413       .  A
C888        H892   1.082       .  S
C893        C894   1.410   1_556  A
C893        C898   1.401   1_455  A
C893        H899   1.083       .  S
C894        C895   1.403       .  A
C895        C896   1.399   1_455  A
C895        H900   1.083       .  S
C896        C897   1.411   1_554  A
C896        H901   1.083       .  S
C897        C898   1.404       .  A
C898        H902   1.083       .  S
C903        C904   1.410       .  A
C903        C908   1.403       .  A
C903        H909   1.083       .  S
C904        C905   1.403       .  A
C905        C906   1.392       .  A
C905        H910   1.083       .  S
C906        C907   1.408       .  A
C906        H911   1.083       .  S
C907        C908   1.406       .  A
C908        H912   1.083       .  S
C913        C914   1.401       .  A
C913        C918   1.390       .  A
C913        H919   1.084       .  S
C914        C915   1.410       .  A
C915        C916   1.415       .  A
C915        H920   1.083       .  S
C916        C917   1.410       .  A
C916        H921   1.083       .  S
C917        C918   1.407       .  A
C918        H922   1.083       .  S
C923        C924   1.407       .  A
C923        C928   1.399       .  A
C923        H929   1.083       .  S
C924        C925   1.404       .  A
C925        C926   1.394       .  A
C925        H930   1.083       .  S
C926        C927   1.407       .  A
C926        H931   1.083       .  S
C927        C928   1.406       .  A
C928        H932   1.083       .  S
C933        C934   1.405       .  A
C933        C938   1.402   1_565  A
C933        H939   1.083       .  S
C934        C935   1.409   1_554  A
C935        C936   1.398   1_565  A
C935        H940   1.083       .  S
C936        C937   1.403       .  A
C936        H941   1.083       .  S
C937        C938   1.410   1_556  A
C938        H942   1.083       .  S
C943        C944   1.407       .  A
C943        C948   1.391       .  A
C943        H949   1.083       .  S
C944        C945   1.405       .  A
C945        C946   1.402       .  A
C945        H950   1.083       .  S
C946        C947   1.409       .  A
C946        H951   1.083       .  S
C947        C948   1.403       .  A
C948        H952   1.083       .  S
C953        C954   1.403       .  A
C953        C958   1.391       .  A
C953        H959   1.083       .  S
C954        C955   1.409       .  A
C955        C956   1.401       .  A
C955        H960   1.083       .  S
C956        C957   1.406       .  A
C956        H961   1.083       .  S
C957        C958   1.407       .  A
C958        H962   1.083       .  S
C963        C964   1.413       .  A
C963        C968   1.401       .  A
C963        H969   1.082       .  S
C964        C965   1.402       .  A
C965        C966   1.404       .  A
C965        H970   1.083       .  S
C966        C967   1.412       .  A
C966        H971   1.083       .  S
C967        C968   1.399       .  A
C968        H972   1.083       .  S
C973        C974   1.405       .  A
C973        C978   1.403       .  A
C973        H979   1.083       .  S
C974        C975   1.408       .  A
C975        C976   1.391       .  A
C975        H980   1.083       .  S
C976        C977   1.402       .  A
C976        H981   1.084       .  S
C977        C978   1.408       .  A
C978        H982   1.083       .  S
C983        C984   1.400       .  A
C983        C988   1.392       .  A
C983        H989   1.084       .  S
C984        C985   1.405       .  A
C985        C986   1.399       .  A
C985        H990   1.081       .  S
C986        C987   1.403       .  A
C986        H991   1.083       .  S
C987        C988   1.408       .  A
C988        H992   1.083       .  S
C993        C994   1.409   1_554  A
C993        C998   1.398       .  A
C993        H999   1.083       .  S
C994        C995   1.405       .  A
C995        C996   1.404       .  A
C995       H1000   1.083       .  S
C996        C997   1.411   1_556  A
C996       H1001   1.083       .  S
C997        C998   1.404       .  A
C998       H1002   1.083       .  S
C1003      C1004   1.405       .  A
C1003      C1008   1.401       .  A
C1003      H1009   1.083       .  S
C1004      C1005   1.405   1_564  A
C1005      C1006   1.401   1_556  A
C1005      H1010   1.083       .  S
C1006      C1007   1.406       .  A
C1006      H1011   1.084       .  S
C1007      C1008   1.405   1_545  A
C1008      H1012   1.084       .  S
C1013      C1014   1.407   1_655  A
C1013      C1018   1.401       .  A
C1013      H1019   1.084       .  S
C1014      C1015   1.403       .  A
C1015      C1016   1.399   1_456  A
C1015      H1020   1.083   1_556  S
C1016      C1017   1.409       .  A
C1016      H1021   1.083   1_655  S
C1017      C1018   1.406   1_554  A
C1018      H1022   1.083       .  S
C1023      C1024   1.409       .  A
C1023      C1028   1.413       .  A
C1023      H1029   1.083       .  S
C1024      C1025   1.408       .  A
C1025      C1026   1.391       .  A
C1025      H1030   1.083       .  S
C1026      C1027   1.400       .  A
C1026      H1031   1.084       .  S
C1027      C1028   1.410       .  A
C1028      H1032   1.083       .  S
C1033      C1034   1.403       .  A
C1033      C1038   1.398       .  A
C1033      H1039   1.083       .  S
C1034      C1035   1.409       .  A
C1035      C1036   1.402       .  A
C1035      H1040   1.083       .  S
C1036      C1037   1.405       .  A
C1036      H1041   1.083       .  S
C1037      C1038   1.410       .  A
C1038      H1042   1.083       .  S
C1043      C1044   1.402       .  A
C1043      C1048   1.402       .  A
C1043      H1049   1.083       .  S
C1044      C1045   1.402       .  A
C1045      C1046   1.388       .  A
C1045      H1050   1.084       .  S
C1046      C1047   1.403       .  A
C1046      H1051   1.083       .  S
C1047      C1048   1.408       .  A
C1048      H1052   1.082       .  S
C1053      C1054   1.404       .  A
C1053      C1058   1.399   1_556  A
C1053      H1059   1.083   1_556  S
C1054      C1055   1.407       .  A
C1055      C1056   1.401       .  A
C1055      H1060   1.084       .  S
C1056      C1057   1.406   1_556  A
C1056      H1061   1.083       .  S
C1057      C1058   1.409       .  A
C1058      H1062   1.083       .  S
C1063      C1064   1.406   1_656  A
C1063      C1068   1.401   1_556  A
C1063      H1069   1.083       .  S
C1064      C1065   1.406       .  A
C1065      C1066   1.400       .  A
C1065      H1070   1.083       .  S
C1066      C1067   1.404   1_455  A
C1066      H1071   1.084       .  S
C1067      C1068   1.406       .  A
C1068      H1072   1.083       .  S
C1073      C1074   1.400       .  A
C1073      C1078   1.394       .  A
C1073      H1079   1.084       .  S
C1074      C1075   1.411       .  A
C1075      C1076   1.415       .  A
C1075      H1080   1.083       .  S
C1076      C1077   1.409       .  A
C1076      H1081   1.083       .  S
C1077      C1078   1.409       .  A
C1078      H1082   1.083       .  S
C1083      C1084   1.404       .  A
C1083      C1088   1.399       .  A
C1083      H1089   1.083       .  S
C1084      C1085   1.411       .  A
C1085      C1086   1.403       .  A
C1085      H1090   1.083       .  S
C1086      C1087   1.404       .  A
C1086      H1091   1.083       .  S
C1087      C1088   1.410       .  A
C1088      H1092   1.083       .  S
C1093      C1094   1.403       .  A
C1093      C1098   1.390       .  A
C1093      H1099   1.083       .  S
C1094      C1095   1.408       .  A
C1095      C1096   1.401       .  A
C1095      H1100   1.083       .  S
C1096      C1097   1.406       .  A
C1096      H1101   1.083       .  S
C1097      C1098   1.406       .  A
C1098      H1102   1.083       .  S
C1103      C1104   1.405       .  A
C1103      C1108   1.399       .  A
C1103      H1109   1.083       .  S
C1104      C1105   1.408       .  A
C1105      C1106   1.398       .  A
C1105      H1110   1.083       .  S
C1106      C1107   1.406       .  A
C1106      H1111   1.083   1_545  S
C1107      C1108   1.408       .  A
C1108      H1112   1.083       .  S
C1113      C1114   1.408       .  A
C1113      C1118   1.402       .  A
C1113      H1119   1.083       .  S
C1114      C1115   1.401       .  A
C1115      C1116   1.392       .  A
C1115      H1120   1.084       .  S
C1116      C1117   1.409       .  A
C1116      H1121   1.083       .  S
C1117      C1118   1.405       .  A
C1118      H1122   1.083       .  S
C1123      C1124   1.402       .  A
C1123      C1128   1.399   1_556  A
C1123      H1129   1.083       .  S
C1124      C1125   1.406   1_565  A
C1125      C1126   1.402       .  A
C1125      H1130   1.084       .  S
C1126      C1127   1.407   1_556  A
C1126      H1131   1.083       .  S
C1127      C1128   1.409   1_545  A
C1128      H1132   1.083       .  S
C1133      C1134   1.408   1_556  A
C1133      C1138   1.399   1_556  A
C1133      H1139   1.083       .  S
C1134      C1135   1.407       .  A
C1135      C1136   1.401       .  A
C1135      H1140   1.083       .  S
C1136      C1137   1.404       .  A
C1136      H1141   1.084       .  S
C1137      C1138   1.404       .  A
C1138      H1142   1.083       .  S
C1143      C1144   1.409       .  A
C1143      C1148   1.413       .  A
C1143      H1149   1.083       .  S
C1144      C1145   1.400       .  A
C1145      C1146   1.392       .  A
C1145      H1150   1.084       .  S
C1146      C1147   1.408       .  A
C1146      H1151   1.083       .  S
C1147      C1148   1.408       .  A
C1148      H1152   1.083       .  S
C1153      C1154   1.403       .  A
C1153      C1158   1.393       .  A
C1153      H1159   1.083       .  S
C1154      C1155   1.408       .  A
C1155      C1156   1.399       .  A
C1155      H1160   1.083       .  S
C1156      C1157   1.405       .  A
C1156      H1161   1.083       .  S
C1157      C1158   1.408       .  A
C1158      H1162   1.083       .  S
C1163      C1164   1.406       .  A
C1163      C1168   1.403       .  A
C1163      H1169   1.083       .  S
C1164      C1165   1.409       .  A
C1165      C1166   1.398       .  A
C1165      H1170   1.083       .  S
C1166      C1167   1.404       .  A
C1166      H1171   1.083       .  S
C1167      C1168   1.410       .  A
C1168      H1172   1.083       .  S
C1173      C1174   1.408       .  A
C1173      C1178   1.394       .  A
C1173      H1179   1.083       .  S
C1174      C1175   1.406       .  A
C1175      C1176   1.403       .  A
C1175      H1180   1.083       .  S
C1176      C1177   1.409       .  A
C1176      H1181   1.083       .  S
C1177      C1178   1.405       .  A
C1178      H1182   1.083       .  S
C1183      C1184   1.410       .  A
C1183      C1188   1.414       .  A
C1183      H1189   1.083       .  S
C1184      C1185   1.401       .  A
C1185      C1186   1.394       .  A
C1185      H1190   1.084       .  S
C1186      C1187   1.408       .  A
C1186      H1191   1.083       .  S
C1187      C1188   1.410       .  A
C1188      H1192   1.083       .  S
C1193      C1194   1.405       .  A
C1193      C1198   1.400       .  A
C1193      H1199   1.083       .  S
C1194      C1195   1.408       .  A
C1195      C1196   1.399       .  A
C1195      H1200   1.083       .  S
C1196      C1197   1.405       .  A
C1196      H1201   1.083       .  S
C1197      C1198   1.408       .  A
C1198      H1202   1.083       .  S
C1203      C1204   1.410       .  A
C1203      C1208   1.398       .  A
C1203      H1209   1.083       .  S
C1204      C1205   1.405       .  A
C1205      C1206   1.400       .  A
C1205      H1210   1.083       .  S
C1206      C1207   1.408       .  A
C1206      H1211   1.084       .  S
C1207      C1208   1.402       .  A
C1208      H1212   1.083       .  S
C1213      C1214   1.406       .  A
C1213      C1218   1.401       .  A
C1213      H1219   1.083       .  S
C1214      C1215   1.404       .  A
C1215      C1216   1.401       .  A
C1215      H1220   1.084       .  S
C1216      C1217   1.407       .  A
C1216      H1221   1.083       .  S
C1217      C1218   1.405       .  A
C1218      H1222   1.083       .  S
C1223      C1224   1.400       .  A
C1223      C1228   1.404       .  A
C1223      H1229   1.083       .  S
C1224      C1225   1.413   1_655  A
C1225      C1226   1.401       .  A
C1225      H1230   1.080       .  S
C1226      C1227   1.398       .  A
C1226      H1231   1.083       .  S
C1227      C1228   1.413   1_455  A
C1228      H1232   1.083       .  S
C1233      C1234   1.408       .  A
C1233      C1238   1.395       .  A
C1233      H1239   1.083       .  S
C1234      C1235   1.405       .  A
C1235      C1236   1.401       .  A
C1235      H1240   1.083       .  S
C1236      C1237   1.407       .  A
C1236      H1241   1.083       .  S
C1237      C1238   1.403       .  A
C1238      H1242   1.083       .  S
C1243      C1244   1.409       .  A
C1243      C1248   1.402       .  A
C1243      H1249   1.083       .  S
C1244      C1245   1.404       .  A
C1245      C1246   1.393       .  A
C1245      H1250   1.083       .  S
C1246      C1247   1.408       .  A
C1246      H1251   1.083       .  S
C1247      C1248   1.406       .  A
C1248      H1252   1.083       .  S
C1253      C1254   1.410       .  A
C1253      C1258   1.402       .  A
C1253      H1259   1.083       .  S
C1254      C1255   1.404       .  A
C1255      C1256   1.398       .  A
C1255      H1260   1.083       .  S
C1256      C1257   1.409       .  A
C1256      H1261   1.083       .  S
C1257      C1258   1.405       .  A
C1258      H1262   1.083       .  S
C1263      C1264   1.406       .  A
C1263      C1268   1.402       .  A
C1263      H1269   1.083       .  S
C1264      C1265   1.409       .  A
C1265      C1266   1.399       .  A
C1265      H1270   1.083       .  S
C1266      C1267   1.402       .  A
C1266      H1271   1.084       .  S
C1267      C1268   1.406       .  A
C1268      H1272   1.084       .  S
C1273      C1274   1.405       .  A
C1273      C1278   1.400       .  A
C1273      H1279   1.084       .  S
C1274      C1275   1.405       .  A
C1275      C1276   1.400       .  A
C1275      H1280   1.083       .  S
C1276      C1277   1.405       .  A
C1276      H1281   1.083       .  S
C1277      C1278   1.406       .  A
C1278      H1282   1.083       .  S
C1283      C1284   1.412   1_565  A
C1283      C1288   1.404       .  A
C1283      H1289   1.082       .  S
C1284      C1285   1.398       .  A
C1285      C1286   1.401       .  A
C1285      H1290   1.083       .  S
C1286      C1287   1.413   1_545  A
C1286      H1291   1.082       .  S
C1287      C1288   1.401       .  A
C1288      H1292   1.083       .  S
C1293      C1294   1.406       .  A
C1293      C1298   1.397       .  A
C1293      H1299   1.083       .  S
C1294      C1295   1.405       .  A
C1295      C1296   1.397       .  A
C1295      H1300   1.082       .  S
C1296      C1297   1.406       .  A
C1296      H1301   1.083       .  S
C1297      C1298   1.407       .  A
C1298      H1302   1.083   1_455  S
C1303      C1304   1.407       .  A
C1303      C1308   1.400       .  A
C1303      H1309   1.080       .  S
C1304      C1305   1.401       .  A
C1305      C1306   1.390       .  A
C1305      H1310   1.084       .  S
C1306      C1307   1.406       .  A
C1306      H1311   1.084       .  S
C1307      C1308   1.402       .  A
C1308      H1312   1.083       .  S
C1313      C1314   1.408       .  A
C1313      C1318   1.391       .  A
C1313      H1319   1.083       .  S
C1314      C1315   1.405       .  A
C1315      C1316   1.401       .  A
C1315      H1320   1.083       .  S
C1316      C1317   1.409       .  A
C1316      H1321   1.083       .  S
C1317      C1318   1.402       .  A
C1318      H1322   1.083       .  S
C1323      C1324   1.409       .  A
C1323      C1328   1.404       .  A
C1323      H1329   1.083       .  S
C1324      C1325   1.404       .  A
C1325      C1326   1.391       .  A
C1325      H1330   1.083       .  S
C1326      C1327   1.406       .  A
C1326      H1331   1.083       .  S
C1327      C1328   1.407       .  A
C1328      H1332   1.083       .  S
C1333      C1334   1.410       .  A
C1333      C1338   1.401       .  A
C1333      H1339   1.083       .  S
C1334      C1335   1.404       .  A
C1335      C1336   1.401       .  A
C1335      H1340   1.083       .  S
C1336      C1337   1.411       .  A
C1336      H1341   1.083       .  S
C1337      C1338   1.404       .  A
C1338      H1342   1.083       .  S
C1343      C1344   1.408       .  A
C1343      C1348   1.399       .  A
C1343      H1349   1.083       .  S
C1344      C1345   1.407       .  A
C1345      C1346   1.402       .  A
C1345      H1350   1.083       .  S
C1346      C1347   1.407       .  A
C1346      H1351   1.083       .  S
C1347      C1348   1.404       .  A
C1348      H1352   1.084       .  S
C1353      C1354   1.405       .  A
C1353      C1358   1.401       .  A
C1353      H1359   1.084       .  S
C1354      C1355   1.404       .  A
C1355      C1356   1.400       .  A
C1355      H1360   1.083       .  S
C1356      C1357   1.408       .  A
C1356      H1361   1.083       .  S
C1357      C1358   1.407       .  A
C1358      H1362   1.083       .  S
C1363      C1364   1.409       .  A
C1363      C1368   1.411       .  A
C1363      H1369   1.083       .  S
C1364      C1365   1.399       .  A
C1365      C1366   1.390       .  A
C1365      H1370   1.084       .  S
C1366      C1367   1.408       .  A
C1366      H1371   1.083       .  S
C1367      C1368   1.407       .  A
C1368      H1372   1.083       .  S
C1373      C1374   1.405       .  A
C1373      C1378   1.400       .  A
C1373      H1379   1.083       .  S
C1374      C1375   1.408       .  A
C1375      C1376   1.397       .  A
C1375      H1380   1.083       .  S
C1376      C1377   1.403       .  A
C1376      H1381   1.083       .  S
C1377      C1378   1.407       .  A
C1378      H1382   1.084       .  S
C1383      C1384   1.404       .  A
C1383      C1388   1.400       .  A
C1383      H1389   1.084       .  S
C1384      C1385   1.405       .  A
C1385      C1386   1.400       .  A
C1385      H1390   1.084       .  S
C1386      C1387   1.406       .  A
C1386      H1391   1.083       .  S
C1387      C1388   1.405       .  A
C1388      H1392   1.083       .  S
C1393      C1394   1.403       .  A
C1393      C1398   1.395   1_455  A
C1393      H1399   1.083       .  S
C1394      C1395   1.410       .  A
C1395      C1396   1.402   1_455  A
C1395      H1400   1.083       .  S
C1396      C1397   1.405       .  A
C1396      H1401   1.083       .  S
C1397      C1398   1.408       .  A
C1398      H1402   1.083       .  S
C1403      C1404   1.407       .  A
C1403      C1408   1.401       .  A
C1403      H1409   1.083       .  S
C1404      C1405   1.408       .  A
C1405      C1406   1.399       .  A
C1405      H1410   1.083       .  S
C1406      C1407   1.404       .  A
C1406      H1411   1.083       .  S
C1407      C1408   1.405       .  A
C1408      H1412   1.084       .  S
C1413      C1414   1.405       .  A
C1413      C1418   1.403       .  A
C1413      H1419   1.084       .  S
C1414      C1415   1.402       .  A
C1415      C1416   1.399       .  A
C1415      H1420   1.084       .  S
C1416      C1417   1.409       .  A
C1416      H1421   1.083       .  S
C1417      C1418   1.407       .  A
C1418      H1422   1.083       .  S
C1423      C1424   1.409       .  A
C1423      C1428   1.413       .  A
C1423      H1429   1.083       .  S
C1424      C1425   1.409       .  A
C1425      C1426   1.394       .  A
C1425      H1430   1.083       .  S
C1426      C1427   1.401       .  A
C1426      H1431   1.084       .  S
C1427      C1428   1.409       .  A
C1428      H1432   1.083       .  S
C1433      C1434   1.404       .  A
C1433      C1438   1.393       .  A
C1433      H1439   1.083       .  S
C1434      C1435   1.408       .  A
C1435      C1436   1.403       .  A
C1435      H1440   1.083       .  S
C1436      C1437   1.406       .  A
C1436      H1441   1.083       .  S
C1437      C1438   1.407       .  A
C1438      H1442   1.083       .  S
C1443      C1444   1.405       .  A
C1443      C1448   1.400       .  A
C1443      H1449   1.083       .  S
C1444      C1445   1.405       .  A
C1445      C1446   1.400       .  A
C1445      H1450   1.084       .  S
C1446      C1447   1.406       .  A
C1446      H1451   1.083       .  S
C1447      C1448   1.406       .  A
C1448      H1452   1.083       .  S
C1453      C1454   1.410       .  A
C1453      C1458   1.398       .  A
C1453      H1459   1.083       .  S
C1454      C1455   1.406       .  A
C1455      C1456   1.401       .  A
C1455      H1460   1.083       .  S
C1456      C1457   1.405       .  A
C1456      H1461   1.084       .  S
C1457      C1458   1.401       .  A
C1458      H1462   1.083       .  S
C1463      C1464   1.410       .  A
C1463      C1468   1.402       .  A
C1463      H1469   1.083       .  S
C1464      C1465   1.405       .  A
C1465      C1466   1.401       .  A
C1465      H1470   1.083       .  S
C1466      C1467   1.410       .  A
C1466      H1471   1.083       .  S
C1467      C1468   1.405       .  A
C1468      H1472   1.083       .  S
C1473      C1474   1.409       .  A
C1473      C1478   1.393       .  A
C1473      H1479   1.083       .  S
C1474      C1475   1.405       .  A
C1475      C1476   1.400       .  A
C1475      H1480   1.083       .  S
C1476      C1477   1.407       .  A
C1476      H1481   1.083       .  S
C1477      C1478   1.401       .  A
C1478      H1482   1.084       .  S
C1483      C1484   1.405       .  A
C1483      C1488   1.402       .  A
C1483      H1489   1.083       .  S
C1484      C1485   1.407       .  A
C1485      C1486   1.402       .  A
C1485      H1490   1.083       .  S
C1486      C1487   1.405       .  A
C1486      H1491   1.084       .  S
C1487      C1488   1.407       .  A
C1488      H1492   1.083       .  S
C1493      C1494   1.409       .  A
C1493      C1498   1.398       .  A
C1493      H1499   1.083       .  S
C1494      C1495   1.407       .  A
C1495      C1496   1.402       .  A
C1495      H1500   1.083       .  S
C1496      C1497   1.407       .  A
C1496      H1501   1.083       .  S
C1497      C1498   1.404       .  A
C1498      H1502   1.083       .  S
C1503      C1504   1.403       .  A
C1503      C1508   1.398       .  A
C1503      H1509   1.083       .  S
C1504      C1505   1.407       .  A
C1505      C1506   1.389       .  A
C1505      H1510   1.083       .  S
C1506      C1507   1.399       .  A
C1506      H1511   1.084       .  S
C1507      C1508   1.405       .  A
C1508      H1512   1.083       .  S
C1513      C1514   1.409       .  A
C1513      C1518   1.399       .  A
C1513      H1519   1.083       .  S
C1514      C1515   1.406       .  A
C1515      C1516   1.401       .  A
C1515      H1520   1.083       .  S
C1516      C1517   1.408       .  A
C1516      H1521   1.083       .  S
C1517      C1518   1.405       .  A
C1518      H1522   1.083       .  S
C1523      C1524   1.403       .  A
C1523      C1528   1.398       .  A
C1523      H1529   1.083       .  S
C1524      C1525   1.408       .  A
C1525      C1526   1.400       .  A
C1525      H1530   1.083       .  S
C1526      C1527   1.405       .  A
C1526      H1531   1.083       .  S
C1527      C1528   1.409       .  A
C1528      H1532   1.083       .  S
C1533      C1534   1.404       .  A
C1533      C1538   1.399       .  A
C1533      H1539   1.084       .  S
C1534      C1535   1.404       .  A
C1535      C1536   1.399       .  A
C1535      H1540   1.083       .  S
C1536      C1537   1.405       .  A
C1536      H1541   1.083       .  S
C1537      C1538   1.405       .  A
C1538      H1542   1.083       .  S
C1543      C1544   1.402       .  A
C1543      C1548   1.392       .  A
C1543      H1549   1.084       .  S
C1544      C1545   1.411       .  A
C1545      C1546   1.416       .  A
C1545      H1550   1.083       .  S
C1546      C1547   1.410       .  A
C1546      H1551   1.083       .  S
C1547      C1548   1.408       .  A
C1548      H1552   1.083       .  S
C1553      C1554   1.405       .  A
C1553      C1558   1.400       .  A
C1553      H1559   1.083       .  S
C1554      C1555   1.407       .  A
C1555      C1556   1.390       .  A
C1555      H1560   1.083       .  S
C1556      C1557   1.403       .  A
C1556      H1561   1.083       .  S
C1557      C1558   1.408       .  A
C1558      H1562   1.083       .  S
C1563      C1564   1.408       .  A
C1563      C1568   1.402       .  A
C1563      H1569   1.083       .  S
C1564      C1565   1.406       .  A
C1565      C1566   1.394       .  A
C1565      H1570   1.083       .  S
C1566      C1567   1.406       .  A
C1566      H1571   1.083       .  S
C1567      C1568   1.407       .  A
C1568      H1572   1.083       .  S
C1573      C1574   1.404       .  A
C1573      C1578   1.397   1_545  A
C1573      H1579   1.083       .  S
C1574      C1575   1.411       .  A
C1575      C1576   1.403   1_545  A
C1575      H1580   1.083       .  S
C1576      C1577   1.404       .  A
C1576      H1581   1.083       .  S
C1577      C1578   1.409       .  A
C1578      H1582   1.083       .  S
C1583      C1584   1.407       .  A
C1583      C1588   1.403       .  A
C1583      H1589   1.083       .  S
C1584      C1585   1.409       .  A
C1585      C1586   1.400       .  A
C1585      H1590   1.083       .  S
C1586      C1587   1.403       .  A
C1586      H1591   1.083       .  S
C1587      C1588   1.408       .  A
C1588      H1592   1.084       .  S
C1593      C1594   1.404       .  A
C1593      C1598   1.399       .  A
C1593      H1599   1.083       .  S
C1594      C1595   1.405       .  A
C1595      C1596   1.401       .  A
C1595      H1600   1.084       .  S
C1596      C1597   1.407       .  A
C1596      H1601   1.083       .  S
C1597      C1598   1.408       .  A
C1598      H1602   1.083       .  S
C1603      C1604   1.400       .  A
C1603      C1608   1.390       .  A
C1603      H1609   1.084       .  S
C1604      C1605   1.410       .  A
C1605      C1606   1.414       .  A
C1605      H1610   1.083       .  S
C1606      C1607   1.409       .  A
C1606      H1611   1.083       .  S
C1607      C1608   1.408       .  A
C1608      H1612   1.083       .  S
C1613      C1614   1.405   1_655  A
C1613      C1618   1.402       .  A
C1613      H1619   1.084       .  S
C1614      C1615   1.406       .  A
C1615      C1616   1.401       .  A
C1615      H1620   1.084       .  S
C1616      C1617   1.406   1_455  A
C1616      H1621   1.083       .  S
C1617      C1618   1.406       .  A
C1618      H1622   1.083       .  S
C1623      C1624   1.403       .  A
C1623      C1628   1.398       .  A
C1623      H1629   1.083       .  S
C1624      C1625   1.407       .  A
C1625      C1626   1.400       .  A
C1625      H1630   1.084       .  S
C1626      C1627   1.406       .  A
C1626      H1631   1.083       .  S
C1627      C1628   1.409       .  A
C1628      H1632   1.083       .  S
C1633      C1634   1.398       .  A
C1633      C1638   1.399       .  A
C1633      H1639   1.083       .  S
C1634      C1635   1.409       .  A
C1635      C1636   1.408       .  A
C1635      H1640   1.083       .  S
C1636      C1637   1.405       .  A
C1636      H1641   1.083       .  S
C1637      C1638   1.411       .  A
C1638      H1642   1.083       .  S
C1643      C1644   1.403       .  A
C1643      C1648   1.401       .  A
C1643      H1649   1.083       .  S
C1644      C1645   1.412       .  A
C1645      C1646   1.399       .  A
C1645      H1650   1.083       .  S
C1646      C1647   1.402       .  A
C1646      H1651   1.083       .  S
C1647      C1648   1.412       .  A
C1648      H1652   1.083       .  S
C1653      C1654   1.403       .  A
C1653      C1658   1.398       .  A
C1653      H1659   1.083       .  S
C1654      C1655   1.407       .  A
C1655      C1656   1.402       .  A
C1655      H1660   1.083       .  S
C1656      C1657   1.406       .  A
C1656      H1661   1.083       .  S
C1657      C1658   1.409       .  A
C1658      H1662   1.083       .  S
C1663      C1664   1.405       .  A
C1663      C1668   1.401       .  A
C1663      H1669   1.083       .  S
C1664      C1665   1.407       .  A
C1665      C1666   1.401       .  A
C1665      H1670   1.083       .  S
C1666      C1667   1.405       .  A
C1666      H1671   1.084       .  S
C1667      C1668   1.406       .  A
C1668      H1672   1.083       .  S
C1673      C1674   1.408   1_655  A
C1673      C1678   1.392       .  A
C1673      H1679   1.083   1_655  S
C1674      C1675   1.411       .  A
C1675      C1676   1.416   1_455  A
C1675      H1680   1.083       .  S
C1676      C1677   1.410       .  A
C1676      H1681   1.083       .  S
C1677      C1678   1.402       .  A
C1678      H1682   1.084       .  S
C1683      C1684   1.410       .  A
C1683      C1688   1.404       .  A
C1683      H1689   1.083       .  S
C1684      C1685   1.404       .  A
C1685      C1686   1.395       .  A
C1685      H1690   1.083       .  S
C1686      C1687   1.409       .  A
C1686      H1691   1.083       .  S
C1687      C1688   1.406       .  A
C1688      H1692   1.083       .  S
C1693      C1694   1.404   1_545  A
C1693      C1698   1.401       .  A
C1693      H1699   1.084       .  S
C1694      C1695   1.406       .  A
C1695      C1696   1.401       .  A
C1695      H1700   1.083       .  S
C1696      C1697   1.405   1_565  A
C1696      H1701   1.083       .  S
C1697      C1698   1.407       .  A
C1698      H1702   1.083       .  S
C1703      C1704   1.407       .  A
C1703      C1708   1.403       .  A
C1703      H1709   1.083       .  S
C1704      C1705   1.410   1_455  A
C1705      C1706   1.400       .  A
C1705      H1710   1.083       .  S
C1706      C1707   1.402       .  A
C1706      H1711   1.083       .  S
C1707      C1708   1.406   1_655  A
C1708      H1712   1.084       .  S
C1713      C1714   1.412       .  A
C1713      C1718   1.401       .  A
C1713      H1719   1.083       .  S
C1714      C1715   1.399       .  A
C1715      C1716   1.401       .  A
C1715      H1720   1.083       .  S
C1716      C1717   1.413       .  A
C1716      H1721   1.083       .  S
C1717      C1718   1.399       .  A
C1718      H1722   1.083       .  S
C1723      C1724   1.404       .  A
C1723      C1728   1.403       .  A
C1723      H1729   1.083       .  S
C1724      C1725   1.406       .  A
C1725      C1726   1.391       .  A
C1725      H1730   1.083       .  S
C1726      C1727   1.402       .  A
C1726      H1731   1.084       .  S
C1727      C1728   1.408       .  A
C1728      H1732   1.083       .  S
C1733      C1734   1.405       .  A
C1733      C1738   1.404       .  A
C1733      H1739   1.083       .  S
C1734      C1735   1.410       .  A
C1735      C1736   1.399       .  A
C1735      H1740   1.083       .  S
C1736      C1737   1.404       .  A
C1736      H1741   1.083       .  S
C1737      C1738   1.411       .  A
C1738      H1742   1.083       .  S
C1743      C1744   1.403       .  A
C1743      C1748   1.399       .  A
C1743      H1749   1.083       .  S
C1744      C1745   1.407       .  A
C1745      C1746   1.401       .  A
C1745      H1750   1.084       .  S
C1746      C1747   1.406       .  A
C1746      H1751   1.083       .  S
C1747      C1748   1.409       .  A
C1748      H1752   1.083       .  S
C1753      C1754   1.405       .  A
C1753      C1758   1.400       .  A
C1753      H1759   1.083       .  S
C1754      C1755   1.406       .  A
C1755      C1756   1.400       .  A
C1755      H1760   1.083       .  S
C1756      C1757   1.404       .  A
C1756      H1761   1.084       .  S
C1757      C1758   1.405       .  A
C1758      H1762   1.083       .  S
C1763      C1764   1.410       .  A
C1763      C1768   1.414   1_565  A
C1763      H1769   1.083       .  S
C1764      C1765   1.400       .  A
C1765      C1766   1.394       .  A
C1765      H1770   1.084       .  S
C1766      C1767   1.409   1_565  A
C1766      H1771   1.083       .  S
C1767      C1768   1.409       .  A
C1768      H1772   1.083       .  S
C1773      C1774   1.407       .  A
C1773      C1778   1.390       .  A
C1773      H1779   1.083       .  S
C1774      C1775   1.404       .  A
C1775      C1776   1.398       .  A
C1775      H1780   1.083       .  S
C1776      C1777   1.408       .  A
C1776      H1781   1.083       .  S
C1777      C1778   1.403       .  A
C1778      H1782   1.083       .  S
C1783      C1784   1.404       .  A
C1783      C1788   1.391       .  A
C1783      H1789   1.083       .  S
C1784      C1785   1.408       .  A
C1785      C1786   1.401       .  A
C1785      H1790   1.083       .  S
C1786      C1787   1.406       .  A
C1786      H1791   1.083       .  S
C1787      C1788   1.405       .  A
C1788      H1792   1.083       .  S
C1793      C1794   1.409   1_545  A
C1793      C1798   1.398       .  A
C1793      H1799   1.083       .  S
C1794      C1795   1.406       .  A
C1795      C1796   1.401       .  A
C1795      H1800   1.083       .  S
C1796      C1797   1.408   1_565  A
C1796      H1801   1.084       .  S
C1797      C1798   1.403       .  A
C1798      H1802   1.083       .  S
C1803      C1804   1.404       .  A
C1803      C1808   1.399       .  A
C1803      H1809   1.084       .  S
C1804      C1805   1.405       .  A
C1805      C1806   1.402       .  A
C1805      H1810   1.084       .  S
C1806      C1807   1.407       .  A
C1806      H1811   1.083       .  S
C1807      C1808   1.407       .  A
C1808      H1812   1.083       .  S
C1813      C1814   1.405       .  A
C1813      C1818   1.409       .  A
C1813      H1819   1.083       .  S
C1814      C1815   1.411       .  A
C1815      C1816   1.398       .  A
C1815      H1820   1.083       .  S
C1816      C1817   1.398       .  A
C1816      H1821   1.083       .  S
C1817      C1818   1.410       .  A
C1818      H1822   1.083       .  S
C1823      C1824   1.404       .  A
C1823      C1828   1.397       .  A
C1823      H1829   1.083       .  S
C1824      C1825   1.409       .  A
C1825      C1826   1.400       .  A
C1825      H1830   1.083       .  S
C1826      C1827   1.405       .  A
C1826      H1831   1.083       .  S
C1827      C1828   1.408       .  A
C1828      H1832   1.083       .  S
C1833      C1834   1.408       .  A
C1833      C1838   1.402       .  A
C1833      H1839   1.083       .  S
C1834      C1835   1.405       .  A
C1835      C1836   1.394       .  A
C1835      H1840   1.083       .  S
C1836      C1837   1.407       .  A
C1836      H1841   1.083       .  S
C1837      C1838   1.406       .  A
C1838      H1842   1.083       .  S
C1843      C1844   1.407       .  A
C1843      C1848   1.391       .  A
C1843      H1849   1.083       .  S
C1844      C1845   1.405       .  A
C1845      C1846   1.399       .  A
C1845      H1850   1.083       .  S
C1846      C1847   1.407       .  A
C1846      H1851   1.083       .  S
C1847      C1848   1.402       .  A
C1848      H1852   1.083       .  S
C1853      C1854   1.406       .  A
C1853      C1858   1.403       .  A
C1853      H1859   1.084       .  S
C1854      C1855   1.403       .  A
C1855      C1856   1.400       .  A
C1855      H1860   1.084       .  S
C1856      C1857   1.409       .  A
C1856      H1861   1.083       .  S
C1857      C1858   1.406       .  A
C1858      H1862   1.083       .  S
C1863      C1864   1.408       .  A
C1863      C1868   1.402       .  A
C1863      H1869   1.083       .  S
C1864      C1865   1.408       .  A
C1865      C1866   1.401       .  A
C1865      H1870   1.083       .  S
C1866      C1867   1.405       .  A
C1866      H1871   1.083       .  S
C1867      C1868   1.405       .  A
C1868      H1872   1.084       .  S
